         240

O            3.00795   1.06131   1.33461
Si           2.12445   0.74786   0.00000
O            0.82668   1.71569   0.00000
Al           3.99044   0.00000   2.29000
Al           0.00000   3.99044   2.29000
O            1.06131   3.00795   3.24539
O            1.06131   4.89961   1.33828
O            4.89961   1.06131   3.24172
Si           2.12445   0.74786   9.16000
O            0.82668   1.71569   9.16000
O            3.00795   1.06131   7.82539
Al           3.99044   0.00000   6.87000
Al           0.00000   3.99044   6.87000
Al           3.99044  18.33000   2.29000
O            1.06131  15.32205   1.33461
Si           0.74786  16.20555   0.00000
O            1.71569  17.50332   0.00000
O            4.89961  17.26869   1.33828
Be           4.36437  13.52937   0.00000
O            6.68495  15.84995   0.00000
O            3.78514  12.95014   1.38499
H            3.22608  12.39108   1.32820
Si           5.15073  16.41635   0.00000
O            4.11692  15.16807   0.00000
Si           7.25135  14.31573   0.00000
O            6.00307  13.28192   0.00000
O            8.10369  14.06461   1.33828
Al           0.00000  14.33956   2.29000
O            3.00795  17.26869   3.24539
Al           9.16500  13.15544   2.29000
O            1.06131  13.43039   3.24172
Si           0.74786  16.20555   9.16000
O            1.71569  17.50332   9.16000
O            1.06131  15.32205   7.82539
Be           4.36437  13.52937   9.16000
O            6.68495  15.84995   9.16000
Si           5.15073  16.41635   9.16000
O            4.11692  15.16807   9.16000
O            4.89961  17.26869   7.82172
O            8.10369  14.06461   7.82172
Si           7.25135  14.31573   9.16000
O            6.00307  13.28192   9.16000
O            3.78514  12.95014   7.77501
H            3.22608  12.39108   7.83180
Al           3.99044  18.33000   6.87000
Al           0.00000  14.33956   6.87000
Al           9.16500  13.15544   6.87000
O           17.26869   3.00795   1.33461
Si          17.58214   2.12445   0.00000
O           16.61431   0.82668   0.00000
Al          14.33956   0.00000   2.29000
O           13.43039   1.06131   1.33828
Be          13.96563   4.80063   0.00000
O           11.64505   2.48005   0.00000
Si          13.17927   1.91365   0.00000
O           14.21308   3.16193   0.00000
Si          11.07865   4.01427   0.00000
O           12.32692   5.04808   0.00000
O           10.22631   4.26539   1.33828
Al          18.33000   3.99044   2.29000
O           14.54486   5.37986   1.38499
H           15.10392   5.93892   1.32820
O           15.32205   1.06131   3.24539
Al           9.16500   5.17456   2.29000
O           17.26869   4.89961   3.24172
Si          17.58214   2.12445   9.16000
O           16.61431   0.82668   9.16000
O           17.26869   3.00795   7.82539
Be          13.96563   4.80063   9.16000
O           11.64505   2.48005   9.16000
Si          13.17927   1.91365   9.16000
O           14.21308   3.16193   9.16000
O           13.43039   1.06131   7.82172
O           10.22631   4.26539   7.82172
Si          11.07865   4.01427   9.16000
O           12.32692   5.04808   9.16000
O           14.54486   5.37986   7.77501
H           15.10392   5.93892   7.83180
Al          14.33956   0.00000   6.87000
Al          18.33000   3.99044   6.87000
Al           9.16500   5.17456   6.87000
Si          16.20555  17.58214   0.00000
O           17.50332  16.61431   0.00000
O           15.32205  17.26869   1.33461
Al          14.33956  18.33000   2.29000
Al          18.33000  14.33956   2.29000
O           17.26869  15.32205   3.24539
O           17.26869  13.43039   1.33828
O           13.43039  17.26869   3.24172
O           15.32205  17.26869   7.82539
Si          16.20555  17.58214   9.16000
O           17.50332  16.61431   9.16000
Al          14.33956  18.33000   6.87000
Al          18.33000  14.33956   6.87000
Be           4.80063   4.36437   0.00000
O            2.48005   6.68495   0.00000
O            5.37986   3.78514   1.38499
H            5.93892   3.22608   1.32820
Si           1.91365   5.15073   0.00000
O            3.16193   4.11692   0.00000
Si           4.01427   7.25135   0.00000
O            5.04808   6.00307   0.00000
O            4.26539   8.10369   1.33828
Al           5.17456   9.16500   2.29000
Be           4.80063   4.36437   9.16000
O            2.48005   6.68495   9.16000
Si           1.91365   5.15073   9.16000
O            3.16193   4.11692   9.16000
O            1.06131   4.89961   7.82172
O            4.26539   8.10369   7.82172
Si           4.01427   7.25135   9.16000
O            5.04808   6.00307   9.16000
O            5.37986   3.78514   7.77501
H            5.93892   3.22608   7.83180
Al           5.17456   9.16500   6.87000
Be          13.52937  13.96563   0.00000
O           15.84995  11.64505   0.00000
Si          16.41635  13.17927   0.00000
O           15.16807  14.21308   0.00000
Si          14.31573  11.07865   0.00000
O           13.28192  12.32692   0.00000
O           14.06461  10.22631   1.33828
O           12.95014  14.54486   1.38499
H           12.39108  15.10392   1.32820
Al          13.15544   9.16500   2.29000
Be          13.52937  13.96563   9.16000
O           15.84995  11.64505   9.16000
Si          16.41635  13.17927   9.16000
O           15.16807  14.21308   9.16000
O           17.26869  13.43039   7.82172
O           14.06461  10.22631   7.82172
Si          14.31573  11.07865   9.16000
O           13.28192  12.32692   9.16000
O           12.95014  14.54486   7.77501
H           12.39108  15.10392   7.83180
Al          13.15544   9.16500   6.87000
Si           0.74786   2.12445   4.58000
O            1.71569   0.82668   4.58000
O            1.06131   3.00795   5.91461
Be           4.36437   4.80063   4.58000
O            6.68495   2.48005   4.58000
Si           5.15073   1.91365   4.58000
O            4.11692   3.16193   4.58000
O            4.89961   1.06131   5.91828
O            8.10369   4.26539   5.91828
Si           7.25135   4.01427   4.58000
O            6.00307   5.04808   4.58000
O            8.10369   4.26539   3.24172
O            3.78514   5.37986   3.19501
H            3.22608   5.93892   3.25180
O            3.78514   5.37986   5.96499
H            3.22608   5.93892   5.90820
O            3.00795  17.26869   5.91461
Si           2.12445  17.58214   4.58000
O            0.82668  16.61431   4.58000
Si          16.20555   0.74786   4.58000
O           17.50332   1.71569   4.58000
O           15.32205   1.06131   5.91461
Si          17.58214  16.20555   4.58000
O           16.61431  17.50332   4.58000
O           17.26869  15.32205   5.91461
Be          13.96563  13.52937   4.58000
O           11.64505  15.84995   4.58000
O           14.54486  12.95014   3.19501
H           15.10392  12.39108   3.25180
Si          13.17927  16.41635   4.58000
O           14.21308  15.16807   4.58000
O           13.43039  17.26869   5.91828
O           10.22631  14.06461   5.91828
Si          11.07865  14.31573   4.58000
O           12.32692  13.28192   4.58000
O           10.22631  14.06461   3.24172
O           14.54486  12.95014   5.96499
H           15.10392  12.39108   5.90820
Be           4.80063  13.96563   4.58000
O            2.48005  11.64505   4.58000
Si           1.91365  13.17927   4.58000
O            3.16193  14.21308   4.58000
O            1.06131  13.43039   5.91828
O            4.26539  10.22631   5.91828
Si           4.01427  11.07865   4.58000
O            5.04808  12.32692   4.58000
O            4.26539  10.22631   3.24172
O            5.37986  14.54486   3.19501
H            5.93892  15.10392   3.25180
O            5.37986  14.54486   5.96499
H            5.93892  15.10392   5.90820
Be          13.52937   4.36437   4.58000
O           15.84995   6.68495   4.58000
O           12.95014   3.78514   3.19501
H           12.39108   3.22608   3.25180
Si          16.41635   5.15073   4.58000
O           15.16807   4.11692   4.58000
O           17.26869   4.89961   5.91828
O           14.06461   8.10369   5.91828
Si          14.31573   7.25135   4.58000
O           13.28192   6.00307   4.58000
O           14.06461   8.10369   3.24172
O           12.95014   3.78514   5.96499
H           12.39108   3.22608   5.90820
O           12.17295  10.22631   5.91461
Si          11.28945   9.91286   4.58000
O            9.99168  10.88069   4.58000
O            8.10369  12.17295   5.91461
Si           8.41714  11.28945   4.58000
O            7.44931   9.99168   4.58000
O           10.22631   6.15705   5.91461
Si           9.91286   7.04055   4.58000
O           10.88069   8.33832   4.58000
O            6.15705   8.10369   3.24539
Si           7.04055   8.41714   4.58000
O            8.33832   7.44931   4.58000
O           12.17295  10.22631   3.24539
O           10.22631   6.15705   3.24539
O            8.10369  12.17295   3.24539
O            6.15705   8.10369   5.91461
O            6.15705  10.22631   7.82539
O           12.17295   8.10369   7.82539
O           10.22631  12.17295   7.82539
O            8.10369   6.15705   7.82539
Si           7.04055   9.91286   0.00000
O            8.33832  10.88069   0.00000
Si           9.91286  11.28945   0.00000
O           10.88069   9.99168   0.00000
Si           8.41714   7.04055   0.00000
O            7.44931   8.33832   0.00000
O           12.17295   8.10369   1.33461
Si          11.28945   8.41714   0.00000
O            9.99168   7.44931   0.00000
O            6.15705  10.22631   1.33461
O            8.10369   6.15705   1.33461
O           10.22631  12.17295   1.33461
Si           7.04055   9.91286   9.16000
O            8.33832  10.88069   9.16000
Si           9.91286  11.28945   9.16000
O           10.88069   9.99168   9.16000
Si           8.41714   7.04055   9.16000
O            7.44931   8.33832   9.16000
Si          11.28945   8.41714   9.16000
O            9.99168   7.44931   9.16000
