240
RON
O       3.007953    1.061307    1.334612
Si      2.124447    0.747864    0.000000
O       0.826683    1.715688    0.000000
Al      3.990441    0.000000    2.290000
Al      0.000000    3.990441    2.290000
O       1.061307    3.007953    3.245388
O       1.061307    4.899609    1.338276
O       4.899609    1.061307    3.241724
Si      2.124447    0.747864    9.160000
O       0.826683    1.715688    9.160000
O       3.007953    1.061307    7.825388
Al      3.990441    0.000000    6.870000
Al      0.000000    3.990441    6.870000
Al      3.990441   18.330000    2.290000
O       1.061307   15.322047    1.334612
Si      0.747864   16.205553    0.000000
O       1.715688   17.503317    0.000000
O       4.899609   17.268693    1.338276
Be      4.364373   13.529373    0.000000
O       6.684951   15.849951    0.000000
O       3.785145   12.950145    1.384992
H       3.226080   12.391080    1.328200
Si      5.150730   16.416348    0.000000
O       4.116918   15.168075    0.000000
Si      7.251348   14.315730    0.000000
O       6.003075   13.281918    0.000000
O       8.103693   14.064609    1.338276
Al      0.000000   14.339559    2.290000
O       3.007953   17.268693    3.245388
Al      9.165000   13.155441    2.290000
O       1.061307   13.430391    3.241724
Si      0.747864   16.205553    9.160000
O       1.715688   17.503317    9.160000
O       1.061307   15.322047    7.825388
Be      4.364373   13.529373    9.160000
O       6.684951   15.849951    9.160000
Si      5.150730   16.416348    9.160000
O       4.116918   15.168075    9.160000
O       4.899609   17.268693    7.821724
O       8.103693   14.064609    7.821724
Si      7.251348   14.315730    9.160000
O       6.003075   13.281918    9.160000
O       3.785145   12.950145    7.775008
H       3.226080   12.391080    7.831800
Al      3.990441   18.330000    6.870000
Al      0.000000   14.339559    6.870000
Al      9.165000   13.155441    6.870000
O      17.268693    3.007953    1.334612
Si     17.582136    2.124447    0.000000
O      16.614312    0.826683    0.000000
Al     14.339559    0.000000    2.290000
O      13.430391    1.061307    1.338276
Be     13.965627    4.800627    0.000000
O      11.645049    2.480049    0.000000
Si     13.179270    1.913652    0.000000
O      14.213082    3.161925    0.000000
Si     11.078652    4.014270    0.000000
O      12.326925    5.048082    0.000000
O      10.226307    4.265391    1.338276
Al     18.330000    3.990441    2.290000
O      14.544855    5.379855    1.384992
H      15.103920    5.938920    1.328200
O      15.322047    1.061307    3.245388
Al      9.165000    5.174559    2.290000
O      17.268693    4.899609    3.241724
Si     17.582136    2.124447    9.160000
O      16.614312    0.826683    9.160000
O      17.268693    3.007953    7.825388
Be     13.965627    4.800627    9.160000
O      11.645049    2.480049    9.160000
Si     13.179270    1.913652    9.160000
O      14.213082    3.161925    9.160000
O      13.430391    1.061307    7.821724
O      10.226307    4.265391    7.821724
Si     11.078652    4.014270    9.160000
O      12.326925    5.048082    9.160000
O      14.544855    5.379855    7.775008
H      15.103920    5.938920    7.831800
Al     14.339559    0.000000    6.870000
Al     18.330000    3.990441    6.870000
Al      9.165000    5.174559    6.870000
Si     16.205553   17.582136    0.000000
O      17.503317   16.614312    0.000000
O      15.322047   17.268693    1.334612
Al     14.339559   18.330000    2.290000
Al     18.330000   14.339559    2.290000
O      17.268693   15.322047    3.245388
O      17.268693   13.430391    1.338276
O      13.430391   17.268693    3.241724
O      15.322047   17.268693    7.825388
Si     16.205553   17.582136    9.160000
O      17.503317   16.614312    9.160000
Al     14.339559   18.330000    6.870000
Al     18.330000   14.339559    6.870000
Be      4.800627    4.364373    0.000000
O       2.480049    6.684951    0.000000
O       5.379855    3.785145    1.384992
H       5.938920    3.226080    1.328200
Si      1.913652    5.150730    0.000000
O       3.161925    4.116918    0.000000
Si      4.014270    7.251348    0.000000
O       5.048082    6.003075    0.000000
O       4.265391    8.103693    1.338276
Al      5.174559    9.165000    2.290000
Be      4.800627    4.364373    9.160000
O       2.480049    6.684951    9.160000
Si      1.913652    5.150730    9.160000
O       3.161925    4.116918    9.160000
O       1.061307    4.899609    7.821724
O       4.265391    8.103693    7.821724
Si      4.014270    7.251348    9.160000
O       5.048082    6.003075    9.160000
O       5.379855    3.785145    7.775008
H       5.938920    3.226080    7.831800
Al      5.174559    9.165000    6.870000
Be     13.529373   13.965627    0.000000
O      15.849951   11.645049    0.000000
Si     16.416348   13.179270    0.000000
O      15.168075   14.213082    0.000000
Si     14.315730   11.078652    0.000000
O      13.281918   12.326925    0.000000
O      14.064609   10.226307    1.338276
O      12.950145   14.544855    1.384992
H      12.391080   15.103920    1.328200
Al     13.155441    9.165000    2.290000
Be     13.529373   13.965627    9.160000
O      15.849951   11.645049    9.160000
Si     16.416348   13.179270    9.160000
O      15.168075   14.213082    9.160000
O      17.268693   13.430391    7.821724
O      14.064609   10.226307    7.821724
Si     14.315730   11.078652    9.160000
O      13.281918   12.326925    9.160000
O      12.950145   14.544855    7.775008
H      12.391080   15.103920    7.831800
Al     13.155441    9.165000    6.870000
Si      0.747864    2.124447    4.580000
O       1.715688    0.826683    4.580000
O       1.061307    3.007953    5.914612
Be      4.364373    4.800627    4.580000
O       6.684951    2.480049    4.580000
Si      5.150730    1.913652    4.580000
O       4.116918    3.161925    4.580000
O       4.899609    1.061307    5.918276
O       8.103693    4.265391    5.918276
Si      7.251348    4.014270    4.580000
O       6.003075    5.048082    4.580000
O       8.103693    4.265391    3.241724
O       3.785145    5.379855    3.195008
H       3.226080    5.938920    3.251800
O       3.785145    5.379855    5.964992
H       3.226080    5.938920    5.908200
O       3.007953   17.268693    5.914612
Si      2.124447   17.582136    4.580000
O       0.826683   16.614312    4.580000
Si     16.205553    0.747864    4.580000
O      17.503317    1.715688    4.580000
O      15.322047    1.061307    5.914612
Si     17.582136   16.205553    4.580000
O      16.614312   17.503317    4.580000
O      17.268693   15.322047    5.914612
Be     13.965627   13.529373    4.580000
O      11.645049   15.849951    4.580000
O      14.544855   12.950145    3.195008
H      15.103920   12.391080    3.251800
Si     13.179270   16.416348    4.580000
O      14.213082   15.168075    4.580000
O      13.430391   17.268693    5.918276
O      10.226307   14.064609    5.918276
Si     11.078652   14.315730    4.580000
O      12.326925   13.281918    4.580000
O      10.226307   14.064609    3.241724
O      14.544855   12.950145    5.964992
H      15.103920   12.391080    5.908200
Be      4.800627   13.965627    4.580000
O       2.480049   11.645049    4.580000
Si      1.913652   13.179270    4.580000
O       3.161925   14.213082    4.580000
O       1.061307   13.430391    5.918276
O       4.265391   10.226307    5.918276
Si      4.014270   11.078652    4.580000
O       5.048082   12.326925    4.580000
O       4.265391   10.226307    3.241724
O       5.379855   14.544855    3.195008
H       5.938920   15.103920    3.251800
O       5.379855   14.544855    5.964992
H       5.938920   15.103920    5.908200
Be     13.529373    4.364373    4.580000
O      15.849951    6.684951    4.580000
O      12.950145    3.785145    3.195008
H      12.391080    3.226080    3.251800
Si     16.416348    5.150730    4.580000
O      15.168075    4.116918    4.580000
O      17.268693    4.899609    5.918276
O      14.064609    8.103693    5.918276
Si     14.315730    7.251348    4.580000
O      13.281918    6.003075    4.580000
O      14.064609    8.103693    3.241724
O      12.950145    3.785145    5.964992
H      12.391080    3.226080    5.908200
O      12.172953   10.226307    5.914612
Si     11.289447    9.912864    4.580000
O       9.991683   10.880688    4.580000
O       8.103693   12.172953    5.914612
Si      8.417136   11.289447    4.580000
O       7.449312    9.991683    4.580000
O      10.226307    6.157047    5.914612
Si      9.912864    7.040553    4.580000
O      10.880688    8.338317    4.580000
O       6.157047    8.103693    3.245388
Si      7.040553    8.417136    4.580000
O       8.338317    7.449312    4.580000
O      12.172953   10.226307    3.245388
O      10.226307    6.157047    3.245388
O       8.103693   12.172953    3.245388
O       6.157047    8.103693    5.914612
O       6.157047   10.226307    7.825388
O      12.172953    8.103693    7.825388
O      10.226307   12.172953    7.825388
O       8.103693    6.157047    7.825388
Si      7.040553    9.912864    0.000000
O       8.338317   10.880688    0.000000
Si      9.912864   11.289447    0.000000
O      10.880688    9.991683    0.000000
Si      8.417136    7.040553    0.000000
O       7.449312    8.338317    0.000000
O      12.172953    8.103693    1.334612
Si     11.289447    8.417136    0.000000
O       9.991683    7.449312    0.000000
O       6.157047   10.226307    1.334612
O       8.103693    6.157047    1.334612
O      10.226307   12.172953    1.334612
Si      7.040553    9.912864    9.160000
O       8.338317   10.880688    9.160000
Si      9.912864   11.289447    9.160000
O      10.880688    9.991683    9.160000
Si      8.417136    7.040553    9.160000
O       7.449312    8.338317    9.160000
Si     11.289447    8.417136    9.160000
O       9.991683    7.449312    9.160000
