196

Zn         9.45153        8.85800        0.96492
Zn         2.95516        8.85800       10.39112
Zn        20.06253        0.00000        0.96492
Zn        -7.65584        0.00000       10.39112
Zn        -4.40766        1.84937        5.67802
Zn        -4.40766       15.86663        5.67802
Zn         6.20334       10.70737        5.67802
Zn         6.20334        7.00863        5.67802
N          8.10193        8.85800        2.47221
N          4.30475        8.85800        8.88383
N         18.71293        0.00000        2.47221
N         -6.30625        0.00000        8.88383
N          7.02144        8.18479        4.26873
N          5.38525        9.53121        7.08730
N          5.38525        8.18479        7.08730
N          7.02144        9.53121        4.26873
N         17.63244       17.04279        4.26873
N         -5.22575        0.67321        7.08730
N         -5.22575       17.04279        7.08730
N         17.63244        0.67321        4.26873
O         -0.07368        7.48147       11.03580
O         12.48036       10.23453        0.32024
O         12.48036        7.48147        0.32024
O         -0.07368       10.23453       11.03580
O         10.53732       16.33947       11.03580
O          1.86936        1.37653        0.32024
O          1.86936       16.33947        0.32024
O         10.53732        1.37653       11.03580
O          1.67120        7.44249        9.66285
O         10.73549       10.27351        1.69319
O         10.73549        7.44249        1.69319
O          1.67120       10.27351        9.66285
O         12.28220       16.30049        9.66285
O          0.12449        1.41551        1.69319
O          0.12449       16.30049        1.69319
O         12.28220        1.41551        9.66285
O         -3.30585        3.06487        6.72732
O         15.71253       14.65113        4.62872
O         15.71253        3.06487        4.62872
O         -3.30585       14.65113        6.72732
O          7.30515       11.92287        6.72732
O          5.10153        5.79313        4.62872
O          5.10153       11.92287        4.62872
O          7.30515        5.79313        6.72732
O         -1.46495        2.43418        5.94148
O         13.87164       15.28182        5.41456
O         13.87164        2.43418        5.41456
O         -1.46495       15.28182        5.94148
O          9.14605       11.29218        5.94148
O          3.26064        6.42382        5.41456
O          3.26064       11.29218        5.41456
O          9.14605        6.42382        5.94148
H         -1.25048        1.62456        6.14362
H         13.65716       16.09144        5.21242
H         13.65716        1.62456        5.21242
H         -1.25048       16.09144        6.14362
H          9.36052       10.48256        6.14362
H          3.04616        7.23344        5.21242
H          3.04616       10.48256        5.21242
H          9.36052        7.23344        6.14362
C          0.53314        7.07223       10.02170
C         11.87354       10.64377        1.33433
C         11.87354        7.07223        1.33433
C          0.53314       10.64377       10.02170
C         11.14414       15.93023       10.02170
C          1.26254        1.78577        1.33433
C          1.26254       15.93023        1.33433
C         11.14414        1.78577       10.02170
C         -0.17384        6.04647        9.16092
C         12.58053       11.66953        2.19512
C         12.58053        6.04647        2.19512
C         -0.17384       11.66953        9.16092
C         10.43716       14.90447        9.16092
C          1.96953        2.81153        2.19512
C          1.96953       14.90447        2.19512
C         10.43716        2.81153        9.16092
C         -1.45340        5.71341        9.36305
C         13.86008       12.00259        1.99298
C         13.86008        5.71341        1.99298
C         -1.45340       12.00259        9.36305
C          9.15760       14.57141        9.36305
C          3.24908        3.14459        1.99298
C          3.24908       14.57141        1.99298
C          9.15760        3.14459        9.36305
H         -1.93103        6.12619       10.04669
H         14.33771       11.58981        1.30935
H         14.33771        6.12619        1.30935
H         -1.93103       11.58981       10.04669
H          8.67997       14.98419       10.04669
H          3.72671        2.73181        1.30935
H          3.72671       14.98419        1.30935
H          8.67997        2.73181       10.04669
C         -2.08330        4.76206        8.56700
C         14.48998       12.95394        2.78904
C         14.48998        4.76206        2.78904
C         -2.08330       12.95394        8.56700
C          8.52770       13.62006        8.56700
C          3.87898        4.09594        2.78904
C          3.87898       13.62006        2.78904
C          8.52770        4.09594        8.56700
H         -2.95983        4.51935        8.76118
H         15.36652       13.19665        2.59485
H         15.36652        4.51935        2.59485
H         -2.95983       13.19665        8.76118
H          7.65117       13.37735        8.76118
H          4.75552        4.33865        2.59485
H          4.75552       13.37735        2.59485
H          7.65117        4.33865        8.76118
C         -1.46714        4.18806        7.53814
C         13.87383       13.52794        3.81790
C         13.87383        4.18806        3.81790
C         -1.46714       13.52794        7.53814
C          9.14386       13.04606        7.53814
C          3.26283        4.66994        3.81790
C          3.26283       13.04606        3.81790
C          9.14386        4.66994        7.53814
C         -0.11794        4.44672        7.39392
C         12.52463       13.26928        3.96212
C         12.52463        4.44672        3.96212
C         -0.11794       13.26928        7.39392
C         10.49306       13.30472        7.39392
C          1.91363        4.41128        3.96212
C          1.91363       13.30472        3.96212
C         10.49306        4.41128        7.39392
H          0.37362        3.96307        6.77161
H         12.03306       13.75293        4.58443
H         12.03306        3.96307        4.58443
H          0.37362       13.75293        6.77161
H         10.98462       12.82107        6.77161
H          1.42206        4.89493        4.58443
H          1.42206       12.82107        4.58443
H         10.98462        4.89493        6.77161
C          0.50389        5.39807        8.14569
C         11.90279       12.31793        3.21035
C         11.90279        5.39807        3.21035
C          0.50389       12.31793        8.14569
C         11.11489       14.25607        8.14569
C          1.29179        3.45993        3.21035
C          1.29179       14.25607        3.21035
C         11.11489        3.45993        8.14569
H          1.39251        5.61243        7.97421
H         11.01418       12.10357        3.38183
H         11.01418        5.61243        3.38183
H          1.39251       12.10357        7.97421
H         12.00351       14.47043        7.97421
H          0.40318        3.24557        3.38183
H          0.40318       14.47043        3.38183
H         12.00351        3.24557        7.97421
C         -2.15281        3.19065        6.64442
C         14.55949       14.52535        4.71162
C         14.55949        3.19065        4.71162
C         -2.15281       14.52535        6.64442
C          8.45819       12.04865        6.64442
C          3.94849        5.66735        4.71162
C          3.94849       12.04865        4.71162
C          8.45819        5.66735        6.64442
C          7.66554        7.79858        3.16833
C          4.74114        9.91742        8.18770
C          4.74114        7.79858        8.18770
C          7.66554        9.91742        3.16833
C         18.27654       16.65658        3.16833
C         -5.86986        1.05942        8.18770
C         -5.86986       16.65658        8.18770
C         18.27654        1.05942        3.16833
C          7.87166        6.38662        2.76065
C          4.53503       11.32938        8.59539
C          4.53503        6.38662        8.59539
C          7.87166       11.32938        2.76065
C         18.48266       15.24462        2.76065
C         -6.07597        2.47138        8.59539
C         -6.07597       15.24462        8.59539
C         18.48266        2.47138        2.76065
H          8.28349        5.90297        3.47949
H          4.12319       11.81303        7.87655
H          4.12319        5.90297        7.87655
H          8.28349       11.81303        3.47949
H         -2.32751       14.76097        3.47949
H         14.73419        2.95503        7.87655
H         14.73419       14.76097        7.87655
H         -2.32751        2.95503        3.47949
H          8.44015        6.35650        1.98731
H          3.96654       11.35950        9.36873
H          3.96654        6.35650        9.36873
H          8.44015       11.35950        1.98731
H         19.05115       15.21450        1.98731
H         -6.64446        2.50150        9.36873
H         -6.64446       15.21450        9.36873
H         19.05115        2.50150        1.98731
H          7.02546        5.98624        2.54943
H          5.38123       11.72976        8.80661
H          5.38123        5.98624        8.80661
H          7.02546       11.72976        2.54943
H         17.63646       14.84424        2.54943
H         -5.22977        2.87176        8.80661
H         -5.22977       14.84424        8.80661
H         17.63646        2.87176        2.54943
