         100

Ge          -2.81918  -1.82769   5.93112
S           -0.79779  -1.17372   5.28005
S           -2.79945  -2.48242   8.04051
Ge          -0.36863   0.59366   6.53109
Ge          -0.78350   6.77009   0.13576
S           -0.84069   5.14444   1.64956
S           -1.40737   8.69673   1.01747
Ge           0.68258   5.73109   3.13562
S           -6.25150  11.47898   5.29027
S           -6.75318   9.40171   8.94120
S           -6.22469   5.79541   8.32955
S           -7.75550   6.94513  11.44182
Ge          -6.32174   7.42038   9.84189
S           -5.02342   3.15319   6.38365
S           -4.76521  -1.49017  13.72346
Ge           6.64410  -0.64129   1.38242
S            5.13047   0.96760   1.62328
S            8.66852   0.09533   1.86999
Ge           5.17585   1.43883   3.77939
S            0.99256  -6.27977  12.58629
S            5.12001  -5.35270  12.61257
S            6.14432  -4.43003   9.18352
S            8.65387  -5.16649  11.73523
Ge           6.64558  -4.35576  11.34693
S            5.40049  -3.41886   5.92236
S           13.49630  -0.28288   5.57055
S           12.90628   5.61551   0.85398
S           11.11501   9.36004   1.67000
S            7.53878   9.18216   0.75471
S            9.13299  12.40753   1.39264
Ge           9.10317  10.26689   1.90064
S            4.64724   7.37098   0.00000
S            0.18335  14.37970   2.54003
Ge           5.58801   1.14945  14.09717
Ge           2.19235   0.94882  13.23589
Ge           3.66082   4.06715  13.83441
Ge          -2.29879  -0.63919   9.18936
Ge          -3.76542   1.44067   6.79239
Mn           7.66774  -1.79526  13.67091
Mn          -1.26530   0.10685  12.58045
S            7.62787   0.51734  13.68259
S            6.58485  -2.22687  11.68560
S            4.15770  -0.02883  12.85927
S            0.93843  -0.25811  11.94544
S            2.14648   3.05827  12.55709
S           -2.34462  -1.41951  11.21263
S            3.61675   6.20696  13.49428
S           -3.81958   0.94944   8.95434
S            3.96522   5.60754   9.71197
Mn           4.68818   6.62993  11.48269
S           -1.98872   2.14554  12.58775
S            5.68934   3.27239  13.44756
S            9.86909  -2.17623  13.05488
S           -0.26308   0.10075   8.70763
S           -1.80719   2.23538   6.13403
S            1.67959   1.25523   6.19388
S            0.99294   1.40420   2.43201
Mn           1.70815   2.41564   4.18375
Ge           9.10635   9.14630   8.04343
Ge           9.62949   5.72963   7.43908
Ge           8.15886   6.76725  10.43894
Ge           8.57087   0.59184   4.04069
Ge           6.12215  -1.82944   4.64359
Mn           9.45313  11.47477   5.28005
Mn          10.64366   2.42081   6.38219
S            8.38588  11.05517   7.28872
S            8.39646   9.95263   3.91369
S            9.12771   7.63679   6.40409
S            9.56265   4.37603   5.74864
S            8.09619   5.13892   8.92660
S           10.60601   1.26272   4.37644
S            6.88719   6.27094  12.12208
S            8.13704  -1.17456   5.29903
S            9.92977   1.40113   8.15145
S            7.54148   8.70055   9.55723
S            8.39597  13.43589   4.64213
S            7.15022   2.24878   4.44067
S            4.55728  -0.30567   5.00269
S            3.90597   3.16234   4.18375
Ge          -0.77884   9.38333  11.94252
Ge           0.16382  10.27145   8.68136
Ge           2.61438   9.57797  11.07979
Ge           0.16357   9.14855   2.53273
Ge           2.61335   7.41737   0.73719
Mn          -4.24836   8.52457  12.57753
Mn           0.52248  11.47393   5.28735
S           -2.05471   8.16810  13.21838
S           -4.29435   7.38755  10.57616
S           -1.41300   9.18179   9.81561
S           -0.55615   9.94603   6.66393
S            2.16794   9.35367   8.91346
S           -0.55684  11.05243   3.28160
S            4.64651   8.94759  11.49145
S            2.16826   9.39712   1.63204
S            2.68571  11.48151   5.28881
S            1.18892   8.41921  12.31331
S           -5.34128   7.01690  13.95703
S            0.18267   7.64848   4.16769
S            2.70991   5.79172   2.23639
S            0.62362   4.36334   4.83044
