100
STO
Ge     -2.663027   -1.606858    6.313581
S      -0.641632   -0.952892    5.662516
S      -2.643298   -2.261591    8.422974
Ge     -0.212476    0.814489    6.913554
Ge     -0.627350    6.990915    0.518225
S      -0.684538    5.365265    2.032024
S      -1.251218    8.917564    1.399936
Ge      0.838735    5.951920    3.518088
S      -6.095344   11.699814    5.672734
S      -6.597029    9.622544    9.323663
S      -6.068535    6.016242    8.712012
S      -7.599349    7.165961   11.824279
Ge     -6.165582    7.641207   10.224352
S      -4.867262    3.374015    6.766115
S      -4.609051   -1.269338   14.105927
Ge      6.800251   -0.420457    1.764883
S       5.286624    1.188429    2.005748
S       8.824671    0.316161    2.252452
Ge      5.332004    1.659658    4.161854
S       1.148713   -6.058936   12.968753
S       5.276168   -5.131873   12.995029
S       6.300470   -4.209204    9.565988
S       8.810024   -4.945663   12.117697
Ge      6.801732   -4.134926   11.729393
S       5.556647   -3.198034    6.304822
S      13.652455   -0.062055    5.953014
S      13.062433    5.836339    1.236440
S      11.271167    9.580868    2.052461
S       7.694933    9.402993    1.137175
S       9.289147   12.628358    1.775102
Ge      9.259324   10.487715    2.283108
S       4.803399    7.591812    0.382464
S       0.339505   14.600531    2.922495
Ge      5.744169    1.370279   14.479633
Ge      2.348505    1.169651   13.618358
Ge      3.816973    4.287981   14.216871
Ge     -2.142632   -0.418364    9.571827
Ge     -3.609268    1.661500    7.174856
Mn      7.823898   -1.574429   14.053375
Mn     -1.109143    0.327676   12.962914
S       7.784020    0.738169   14.065053
S       6.741004   -2.006037   12.068064
S       4.313858    0.192003   13.241733
S       1.094588   -0.037282   12.327906
S       2.302638    3.279102   12.939557
S      -2.188461   -1.198676   11.595093
S       3.772907    6.427790   13.876741
S      -3.663429    1.170270    9.336801
S       4.121376    5.828374   10.094431
Mn      4.844330    6.850762   11.865153
S      -1.832562    2.366370   12.970212
S       5.845499    3.493216   13.830027
S      10.025245   -1.955399   13.437344
S      -0.106926    0.321575    9.090097
S      -1.651038    2.456211    6.516492
S       1.835749    1.476057    6.576343
S       1.149098    1.625033    2.814470
Mn      1.864304    2.636465    4.566215
Ge      9.262506    9.367134    8.425894
Ge      9.785641    5.950459    7.821542
Ge      8.315010    6.988081   10.821405
Ge      8.727028    0.812674    4.423156
Ge      6.278309   -1.608611    5.026049
Mn      9.609287   11.695600    5.662516
Mn     10.799810    2.641636    6.764656
S       8.542036   11.275999    7.671184
S       8.552615   10.173462    4.296155
S       9.283867    7.857623    6.786552
S       9.718805    4.596860    6.131108
S       8.252347    5.359745    9.309065
S      10.762167    1.483547    4.758907
S       7.043340    6.491770   12.504540
S       8.293198   -0.953734    5.681493
S      10.085925    1.621960    8.533918
S       7.697632    8.921380    9.939693
S       8.552120   13.656724    5.024589
S       7.306373    2.469607    4.823138
S       4.713434   -0.084840    5.385156
S       4.062122    3.383171    4.566215
Ge     -0.622687    9.604159   12.324986
Ge      0.319978   10.492283    9.063821
Ge      2.770530    9.798797   11.462252
Ge      0.319727    9.369375    2.915196
Ge      2.769506    7.638204    1.119657
Mn     -4.092206    8.745396   12.959994
Mn      0.678630   11.694758    5.669815
S      -1.898559    8.388932   13.600841
S      -4.138191    7.608377   10.958625
S      -1.256843    9.402623   10.198076
S      -0.399991   10.166863    7.046395
S       2.324091    9.574504    9.295927
S      -0.400688   11.273261    3.664067
S       4.802664    9.168417   11.873912
S       2.324419    9.617949    2.014507
S       2.841869   11.702343    5.671275
S       1.345078    8.640035   12.695772
S      -5.185129    7.237729   14.339493
S       0.338826    7.869306    4.550158
S       2.866068    6.012553    2.618859
S       0.779771    4.584171    5.212901
