          84

Be           1.37562   5.36777   3.27933
Be           5.27039   6.09771   4.60774
P            3.92559   3.84470   3.23576
P            2.69841   7.59136   4.65754
O            4.81437   4.08330   1.96835
O            1.72346   6.41474   4.54176
O            2.55626   4.34477   3.02535
O            2.36630   8.77233   3.75866
O            0.33148   8.74074   1.82766
O            3.80671   2.34016   3.51090
O            4.64642   4.64872   4.39236
O            4.13630   7.21005   4.40232
O            2.48078   8.17095   6.09427
Be           6.27685   3.60862   1.47657
P           -0.01327   7.24022   1.49649
O           -0.01327   7.24022   0.00000
O           -1.48507   6.78842   1.82766
O            1.11396   6.19140   1.82766
Be           4.62441   1.49256   4.60774
P            7.24797   1.45443   3.23576
O            6.59695   2.10484   1.96835
O            7.49957   0.01852   3.02535
O            8.61038   2.10375   3.51090
O            6.19125   1.67668   4.39236
Be          -2.32919   6.97363   3.27933
P           -1.06490   4.71627   4.65754
O           -1.59640   6.14891   4.54176
O            0.12391   4.41340   3.75866
O           -2.11407   3.66167   4.40232
O           -0.45414   4.61495   6.09427
Be           0.91394   9.37916   3.27933
Be           8.93557   3.23570   4.60774
Be           2.64557   7.61315   7.67293
Be          -1.01961   4.75113   7.67293
O            7.41905   4.63783   1.96835
O           -2.52984   8.53483   3.75866
O            6.41328   6.38206   3.51090
O            5.83586   6.23389   6.18640
O            4.22373   1.91418   6.18640
Be          -0.01327   7.24022  10.80411
O            6.27685   3.60862  12.28068
P           -1.67314   9.41293   4.65754
O           -0.16669   9.15691   4.54176
O           -2.06186  10.84884   4.40232
O           -2.06627   8.93466   6.09427
Be          -1.66559   9.35628   7.67293
P            7.65682   5.52683   3.23576
O            8.77455   6.46268   3.02535
O            7.99270   4.50056   4.39236
O            8.77078   2.67789   6.18640
Be           3.96081   3.87521   9.00135
P            1.36682   5.32201   9.04493
P            5.22510   6.13257   7.62313
O            1.12905   6.21101  10.31234
O            4.69360   4.69993   7.73892
O            2.48455   4.38616   9.25533
O            6.41391   6.43544   8.52203
O            7.40396   4.65744  10.45302
O            0.12328   4.46678   8.76978
O            1.70270   6.34828   7.88832
O            4.17593   7.18717   7.87836
P            6.27685   3.60862  10.78419
O            6.62148   2.10810  10.45302
O            4.80493   4.06042  10.45302
P           -2.36441   7.00414   9.04493
O           -1.47563   6.76555  10.31234
O           -3.73374   6.50408   9.25533
O           -2.48329   8.50868   8.76978
O           -1.64358   6.20012   7.88832
Be           7.20394   1.46968   9.00135
P            4.61686   1.43591   7.62313
O            6.12331   1.69193   7.73892
O            3.76016   2.31401   8.52203
O            4.22814  -0.00000   7.87836
Be           7.66562   5.48107   9.00135
O            0.30695   8.74400  10.31234
O            8.65630   2.07651   8.52203
O            2.32038   8.74509   8.76978
P            0.95797   9.39441   9.04493
O            1.20957  10.83032   9.25533
O           -0.09875   9.17216   7.88832
P            8.98841   3.25748   7.62313
O            8.01346   4.43410   7.73892
O           10.42630   3.63880   7.87836
