         162

Mg           7.67285  15.24166   3.15345
Mg           5.13592   6.94380   3.53494
Mg          -4.29205  21.32164   3.15345
Mg          17.10083   0.86382   3.53494
Mg          -3.57501   7.91974   3.15345
Mg          16.38379  14.26572   3.53494
Mg           7.67285   0.30186   5.41532
Mg          -7.80233  14.41370   5.79680
Mg          21.58445   6.38184   5.41532
Mg           4.16258   8.33372   5.79680
Mg           9.36324  15.38964   5.41532
Mg           3.44554  21.73562   5.79680
Mg          20.61111   7.77176   0.89158
Mg           5.13592  21.88360   1.27307
Mg           8.64620  13.85174   0.89158
Mg          -8.77567  15.80362   1.27307
Mg           9.36324   0.44984   0.89158
Mg           3.44554   6.79582   1.27307
O           21.16823   6.56059   2.39679
O           -8.35945  15.62487   4.29160
O            9.41654  14.93980   2.39679
O            3.39223   7.24566   4.29160
O            8.03577   0.57294   2.39679
O            4.77300  21.61252   4.29160
O            8.22997  14.03049   4.65865
O           17.51705   0.68506   6.55347
O            9.41654  -0.00000   4.65865
O           16.33049  14.71556   6.55347
O           20.97402   8.04284   4.65865
O            4.77301   6.67271   6.55347
O           -4.70827  21.50039   0.13492
O            4.57880   8.15497   2.02973
O           -3.52171   7.46990   0.13492
O            3.39224  22.18546   2.02973
O            8.03577  15.51274   0.13492
O           -8.16525  14.14262   2.02973
O           20.95707   5.05287   4.09197
O           -8.14830  17.13259   2.59642
O           10.82785  15.51080   4.09197
O            1.98093   6.67466   2.59642
O            6.83562   1.50967   4.09197
O            5.97316  20.67579   2.59642
O            8.01882  12.52277   6.35383
O           17.72820   2.19279   4.85829
O           10.82785   0.57100   6.35383
O           14.91918  14.14456   4.85829
O           19.77387   8.97957   6.35383
O            5.97316   5.73599   4.85829
O           -4.91943  19.99267   1.83010
O            4.78995   9.66269   0.33455
O           -2.11040   8.04090   1.83010
O            1.98093  21.61446   0.33455
O            6.83562  16.44947   1.83010
O           -6.96509  13.20589   0.33455
O           -5.65626  20.99894   4.52373
O           18.46504   1.18652   2.16465
O           -2.61344   6.89965   4.52373
O           15.42222  15.28581   2.16465
O            8.07549  16.58445   4.52373
O            4.73329   5.60101   2.16465
O           20.22024   6.05914   0.00000
O            5.52679   8.65642   4.42652
O           10.32481  14.36955   0.00000
O           15.42222   0.34601   4.42652
O            8.07549   1.64465   0.00000
O           17.67154  13.07091   4.42652
O            7.28199  13.52904   2.26187
O           -7.41146  16.12632   6.68839
O           -2.61344  21.83945   2.26187
O            2.48397   7.81591   6.68839
O           -4.86276   9.11455   2.26187
O            4.73329  20.54081   6.68839
C           20.73402   5.39618   2.84905
C           -7.92524  16.78928   3.83934
C           10.64205  15.14597   2.84905
C            2.16672   7.03949   3.83934
C            7.24447   1.53118   2.84905
C            5.56431  20.65428   3.83934
C            7.79577  12.86608   5.11092
C           17.95126   1.84947   6.10121
C           10.64205   0.20617   5.11092
C           15.10497  14.50939   6.10121
C           20.18272   9.00108   5.11092
C            5.56431   5.71447   6.10121
C           -5.14248  20.33599   0.58718
C            5.01301   9.31938   1.57747
C           -2.29620   7.67607   0.58718
C            2.16672  21.97929   1.57747
C            7.24447  16.47098   0.58718
C           -7.37394  13.18438   1.57747
C           20.00572   4.52915   1.92485
C           -7.19695  17.65631   4.76354
C           11.75707  14.94877   1.92485
C            1.05171   7.23669   4.76354
C            6.85774   2.59542   1.92485
C            5.95103  19.59004   4.76354
C            7.06747  11.99905   4.18672
C           18.67955   2.71650   0.23980
C           11.75707   0.00897   4.18672
C           13.98995  14.70659   0.23980
C           19.79599  10.06532   4.18672
C            5.95103   4.65024   0.23980
C           -5.87078  19.46895   6.44858
C            5.74130  10.18641   2.50167
C           -1.18118   7.47887   6.44858
C            1.05171  22.17649   2.50167
C            6.85775  17.53522   6.44858
C           -6.98722  12.12014   2.50167
C           -6.07041  19.81593   5.07384
C           18.87919   2.36953   1.61454
C           -1.38185   7.13249   5.07384
C           14.19063  15.05297   1.61454
C            7.25805  17.53462   5.07384
C            5.55072   4.65084   1.61454
C           19.80609   4.87613   0.55011
C            5.94094   9.83943   3.87641
C           11.55640  14.60239   0.55011
C           14.19063   0.11317   3.87641
C            7.25805   2.59482   0.55011
C           18.48897  12.12074   3.87641
C            6.86784  12.34603   2.81198
C           -6.99731  17.30933   6.13828
C           -1.38185  22.07229   2.81198
C            1.25238   7.58307   6.13828
C           -5.68019  10.06472   2.81198
C            5.55072  19.59064   6.13828
C           -6.72781  18.88212   4.26419
C           19.53658   3.30334   2.42420
C           -0.24445   7.03007   4.26419
C           13.05323  15.15539   2.42420
C            6.77805  18.57085   4.26419
C            6.03073   3.61461   2.42420
C           19.14869   3.94232   6.52605
C            6.59833  10.77324   4.68607
C           12.69380  14.49998   6.52605
C           13.05323   0.21558   4.68607
C            6.77805   3.63104   6.52605
C           18.96898  11.08451   4.68607
C            6.21044  11.41222   2.00232
C           -6.33992  18.24314   0.16234
C           -0.24445  21.96988   2.00232
C            0.11498   7.68548   0.16234
C           -6.16020  11.10095   2.00232
C            6.03073  18.55441   0.16234
H           -6.88902  19.11608   3.20292
H           19.69779   3.06938   3.48547
H           -0.36646   6.77348   3.20292
H           13.17523  15.41198   3.48547
H            7.06126  18.59348   3.20292
H            5.74751   3.59198   3.48547
H           18.98748   4.17627   5.46478
H            6.75954  10.53928   5.74734
H           12.57179  14.24338   5.46478
H           13.17523   0.47217   5.74734
H            7.06126   3.65368   5.46478
H           18.68576  11.06188   5.74734
H            6.04923  11.64618   0.94105
H           -6.17871  18.00919   1.22360
H           -0.36646  21.71329   0.94105
H            0.23698   7.94207   1.22360
H           -5.87699  11.12358   0.94105
H            5.74751  18.53178   1.22360
