          68

Be          -0.22623   4.85350   2.24274
O            0.62007   3.90998   1.21242
O            0.80108   5.84944   3.01524
Be           2.21678   3.52655   1.37631
P            8.24147   0.78432   3.28648
Be           9.27278   3.53044   3.14655
O            9.05033   1.96955   2.73346
O            8.50955   0.63290   4.79218
O            6.74958   0.99594   3.01524
O           10.80913   3.95948   3.28360
P            9.12605   5.63103   1.18079
Ca           6.92673   5.50290   3.39382
O           10.62081   5.80381   1.41178
O            8.31626   6.81528   1.71944
O            8.57601   4.40795   1.95138
Be           7.68188   0.96973   6.16850
O            5.46492   6.08532   1.63318
Be           5.72227  -0.00000   2.24274
O            8.27436   0.13590   7.40680
O            6.08518   0.58630   6.00460
O            7.83287   2.53450   6.51162
O            8.37252   3.92745   4.47590
Be           8.16528   8.38005   1.37631
O            7.88912   5.42233   9.26808
Be           8.78938   5.81935   7.93873
Ca           6.44334   3.84688   8.18600
O            8.75776   9.21388   2.61461
Be          -0.70962   4.49628   7.03492
O            0.13668   5.43980   6.00460
O            0.31769   3.50034   7.80742
Be           1.73338   5.82323   6.16850
O            8.99294   8.71689   0.00000
O            6.56857   8.76348   1.21242
P            7.75808   8.56546   8.07866
O            8.56694   7.38023   7.52564
O            6.26619   8.35384   7.80742
O           10.32574   5.39030   8.07578
P            8.64266   3.71875   5.97297
O           10.13742   3.54597   6.20396
O            8.09262   4.94183   6.74356
O            4.98153   3.26446   6.42536
Be           5.23888   9.34978   7.03492
P            3.17755   0.77753   1.18079
Ca           0.97823   0.64940   3.39382
O            4.67231   0.95031   1.41178
O            2.36776   1.96178   1.71944
O            1.94062   0.56883   9.26808
Be           2.84088   0.96585   7.93873
P            2.29297   5.63782   3.28648
Be           3.32428   8.38394   3.14655
O            3.10183   6.82305   2.73346
O            2.56105   5.48640   4.79218
O            2.80926   4.36038   2.61461
O            4.86063   8.81298   3.28360
O            2.62751   9.26145   1.95138
O            2.32586   4.98940   7.40680
O            1.88437   7.38800   6.51162
O            2.42402   8.78095   4.47590
Ca           0.49484   8.70038   8.18600
O            3.04444   3.86339   0.00000
P            1.80958   3.71196   8.07866
O            2.61844   2.52673   7.52564
O            4.37724   0.53680   8.07578
O            2.14412   0.08833   6.74356
P            2.69416   8.57225   5.97297
O            4.18892   8.39947   6.20396
O           11.41342   1.23182   1.63318
O           10.93003   8.11796   6.42536
