208

Cd   -2.75472    7.74831    3.40228
Cd    9.79328    2.35406    3.40228
Cd   -8.26417    3.04019   10.20685
Cd    4.28383    8.43444   10.20685
Cd    0.10618    8.85718    5.27187
Cd   12.65418    3.46293    5.27187
Cd   19.48038    8.85718    1.53270
Cd    6.93237    3.46293    1.53270
Cd   13.97093    1.93132    8.33727
Cd    1.42293    7.32557    8.33727
Cd   -5.40327    1.93132   12.07644
Cd    7.14473    7.32557   12.07644
 O   -1.13918    6.35233    2.88636
 O   11.40882    0.95809    2.88636
 O   20.72573    6.35233    3.91821
 O    8.17773    0.95809    3.91821
 O   15.21629    4.43616   10.72278
 O    2.66829    9.83041   10.72278
 O   -6.64862    4.43616    9.69093
 O    5.89938    9.83041    9.69093
 O    0.55110    6.96077    4.20400
 O   13.09910    1.56652    4.20400
 O   19.03545    6.96077    2.60057
 O    6.48745    1.56652    2.60057
 O   13.52601    3.82773    9.40514
 O    0.97801    9.22198    9.40514
 O   -4.95834    3.82773   11.00857
 O    7.58966    9.22198   11.00857
 O   -7.63068    2.84528   12.50054
 O    4.91732    8.23953   12.50054
 O   16.19835    2.84528    7.91317
 O    3.65035    8.23953    7.91317
 O   21.70780    7.94322    1.10860
 O    9.15979    2.54897    1.10860
 O   -2.12124    7.94322    5.69597
 O   10.42676    2.54897    5.69597
 O    4.97334    3.22061    0.34268
 O   17.52134    8.61486    0.34268
 O   14.61321    3.22061    6.46189
 O    2.06521    8.61486    6.46189
 O    9.10377    7.56788   13.26646
 O   -3.44423    2.17364   13.26646
 O   -0.53610    7.56788    7.14725
 O   12.01190    2.17364    7.14725
 O   -1.25399    9.48010    3.20033
 O   11.29401    4.08585    3.20033
 O   20.84055    9.48010    3.60424
 O    8.29255    4.08585    3.60424
 O   15.33111    1.30840   10.40881
 O    2.78310    6.70265   10.40881
 O   -6.76344    1.30840   10.00490
 O    5.78456    6.70265   10.00490
 O    0.84989   10.01413    3.46040
 O   13.39789    4.61988    3.46040
 O   18.73666   10.01413    3.34417
 O    6.18866    4.61988    3.34417
 O   13.22722    0.77437   10.14874
 O    0.67922    6.16862   10.14874
 O   -4.65955    0.77437   10.26497
 O    7.88845    6.16862   10.26497
 C    0.06270    6.34246    3.24837
 C   12.61070    0.94821    3.24837
 C   19.52386    6.34246    3.55620
 C    6.97586    0.94821    3.55620
 C   14.01441    4.44604   10.36077
 C    1.46641    9.84029   10.36077
 C   -5.44675    4.44604   10.05294
 C    7.10125    9.84029   10.05294
 C    1.01289    5.50290    2.43236
 C   13.56089    0.10865    2.43236
 C   18.57367    5.50290    4.37221
 C    6.02567    0.10865    4.37221
 C   13.06422    5.28560   11.17678
 C    0.51622   10.67985   11.17678
 C   -4.49656    5.28560    9.23693
 C    8.05144   10.67985    9.23693
 C    0.55964    4.71536    1.39358
 C   13.10764   10.10961    1.39358
 C   19.02691    4.71536    5.41099
 C    6.47891   10.10961    5.41099
 C   13.51747    6.07314   12.21556
 C    0.96947    0.67889   12.21556
 C   -4.94980    6.07314    8.19815
 C    7.59820    0.67889    8.19815
 H   -0.37245    4.65017    1.22618
 H   12.17555   10.04442    1.22618
 H   19.95900    4.65017    5.57839
 H    7.41100   10.04442    5.57839
 H   14.44956    6.13833   12.38296
 H    1.90156    0.74408   12.38296
 H   -5.88189    6.13833    8.03075
 H    6.66611    0.74408    8.03075
 C    1.45495    4.01540    0.58860
 C   14.00296    9.40965    0.58860
 C   18.13160    4.01540    6.21597
 C    5.58360    9.40965    6.21597
 C   12.62216    6.77310   13.02054
 C    0.07416    1.37885   13.02054
 C   -4.05449    6.77310    7.39317
 C    8.49351    1.37885    7.39317
 H   -9.88593    3.49322   13.47169
 H    2.66207    8.88747   13.47169
 H   18.45359    3.49322    6.94202
 H    5.90559    8.88747    6.94202
 H   23.96304    7.29528    0.13745
 H   11.41504    1.90103    0.13745
 H   -4.37648    7.29528    6.66712
 H    8.17152    1.90103    6.66712
 C    2.81247    4.08125    0.84540
 C   15.36047    9.47550    0.84540
 C   16.77409    4.08125    5.95917
 C    4.22609    9.47550    5.95917
 C   11.26465    6.70725   12.76374
 C   -1.28335    1.31300   12.76374
 C   -2.69698    6.70725    7.64997
 C    9.85102    1.31300    7.64997
 C    3.26405    4.84640    1.90705
 C   15.81205   10.24065    1.90705
 C   16.32251    4.84640    4.89752
 C    3.77451   10.24065    4.89752
 C   10.81306    5.94210   11.70209
 C   -1.73494    0.54785   11.70209
 C   -2.24540    5.94210    8.71162
 C   10.30260    0.54785    8.71162
 H    4.19367    4.87735    2.10397
 H   16.74167   10.27160    2.10397
 H   15.39288    4.87735    4.70060
 H    2.84488   10.27160    4.70060
 H    9.88344    5.91115   11.50517
 H   -2.66456    0.51691   11.50517
 H   -1.31577    5.91115    8.90854
 H   11.23223    0.51691    8.90854
 C    2.36888    5.56875    2.68726
 C   14.91688    0.17450    2.68726
 C   17.21768    5.56875    4.11731
 C    4.66968    0.17450    4.11731
 C   11.70823    5.21975   10.92188
 C   -0.83977   10.61400   10.92188
 C   -3.14057    5.21975    9.49183
 C    9.40743   10.61400    9.49183
 H    2.69238    6.11067    3.39820
 H   15.24038    0.71642    3.39820
 H   16.89417    6.11067    3.40637
 H    4.34617    0.71642    3.40637
 H   11.38473    4.67783   10.21094
 H   -1.16327   10.07208   10.21094
 H   -2.81706    4.67783   10.20277
 H    9.73094   10.07208   10.20277
 C    3.77687    3.35297   -0.02599
 C   -7.24202    3.35297   13.58315
 C   16.32487    8.74722   -0.02599
 C    5.30598    8.74722   13.58315
 C   15.80969    3.35297    6.83056
 C    3.26169    8.74722    6.83056
 C   21.31913    7.43553    0.02599
 C   10.30024    7.43553   13.63513
 C    8.77113    2.04128    0.02599
 C   -2.24776    2.04128   13.63513
 C   -1.73258    7.43553    6.77858
 C   10.81542    2.04128    6.77858
 C   -0.17330    9.92524    2.75095
 C   12.37470    4.53099    2.75095
 C   19.75985    9.92524    4.05362
 C    7.21185    4.53099    4.05362
 C   14.25041    0.86326   10.85819
 C    1.70241    6.25751   10.85819
 C   -5.68274    0.86326    9.55552
 C    6.86526    6.25751    9.55552
 C   -0.09120   10.38749    1.32907
 C   12.45680    4.99324    1.32907
 C   19.67775   10.38749    5.47550
 C    7.12975    4.99324    5.47550
 C   14.16831    0.40101   12.28007
 C    1.62031    5.79526   12.28007
 C   -5.60064    0.40101    8.13364
 C    6.94736    5.79526    8.13364
 C    1.06826    0.16199    0.84486
 C   13.61626    5.55624    0.84486
 C   18.51830    0.16199    5.95971
 C    5.97030    5.55624    5.95971
 C   13.00885   10.62651   12.76428
 C    0.46085    5.23226   12.76428
 C   -4.44119   10.62651    7.64943
 C    8.10681    5.23226    7.64943
 H    1.81024    0.27919    1.42488
 H   14.35824    5.67344    1.42488
 H   17.77632    0.27919    5.37969
 H    5.22832    5.67344    5.37969
 H   12.26687   10.50931   12.18426
 H   -0.28113    5.11506   12.18426
 H   -3.69921   10.50931    8.22945
 H    8.84879    5.11506    8.22945
 C   23.93274   10.23077    0.47945
 C   11.38475    4.83652    0.47945
 C   -4.34619   10.23077    6.32512
 C    8.20181    4.83652    6.32512
 C   -9.85564    0.55773   13.12969
 C    2.69236    5.95198   13.12969
 C   18.42330    0.55773    7.28402
 C    5.87530    5.95198    7.28402
 H   23.12400    9.85017    0.80294
 H   10.57600    4.45592    0.80294
 H   -3.53744    9.85017    6.00163
 H    9.01056    4.45592    6.00163
 H   -9.04689    0.93833   12.80620
 H    3.50111    6.33258   12.80620
 H   17.61455    0.93833    7.60751
 H    5.06655    6.33258    7.60751
