         208

Cd          -2.77576   7.63966   3.42827
Cd           9.77224   2.24541   3.42827
Cd          -8.28521   2.93154  10.23284
Cd           4.26279   8.32579  10.23284
Cd           0.08514   8.74853   5.29786
Cd          12.63314   3.35428   5.29786
Cd          19.45934   8.74853   1.55869
Cd           6.91133   3.35428   1.55869
Cd          13.94989   1.82267   8.36326
Cd           1.40189   7.21692   8.36326
Cd          -5.42431   1.82267  12.10243
Cd           7.12369   7.21692  12.10243
O           -1.16022   6.24368   2.91235
O           11.38778   0.84944   2.91235
O           20.70469   6.24368   3.94420
O            8.15669   0.84944   3.94420
O           15.19525   4.32751  10.74877
O            2.64725   9.72176  10.74877
O           -6.66966   4.32751   9.71692
O            5.87834   9.72176   9.71692
O            0.53006   6.85212   4.22999
O           13.07806   1.45787   4.22999
O           19.01441   6.85212   2.62656
O            6.46641   1.45787   2.62656
O           13.50497   3.71908   9.43113
O            0.95697   9.11333   9.43113
O           -4.97938   3.71908  11.03456
O            7.56862   9.11333  11.03456
O           -7.65172   2.73663  12.52653
O            4.89628   8.13088  12.52653
O           16.17731   2.73663   7.93916
O            3.62931   8.13088   7.93916
O           21.68676   7.83457   1.13459
O            9.13875   2.44032   1.13459
O           -2.14228   7.83457   5.72196
O           10.40572   2.44032   5.72196
O            4.95230   3.11196   0.36867
O           17.50030   8.50621   0.36867
O           14.59217   3.11196   6.48788
O            2.04417   8.50621   6.48788
O            9.08273   7.45923  13.29245
O           -3.46527   2.06499  13.29245
O           -0.55714   7.45923   7.17324
O           11.99086   2.06499   7.17324
O           -1.27503   9.37145   3.22632
O           11.27297   3.97720   3.22632
O           20.81951   9.37145   3.63023
O            8.27151   3.97720   3.63023
O           15.31007   1.19975  10.43480
O            2.76206   6.59400  10.43480
O           -6.78448   1.19975  10.03089
O            5.76352   6.59400  10.03089
O            0.82885   9.90548   3.48639
O           13.37685   4.51123   3.48639
O           18.71562   9.90548   3.37016
O            6.16762   4.51123   3.37016
O           13.20618   0.66572  10.17473
O            0.65818   6.05997  10.17473
O           -4.68059   0.66572  10.29096
O            7.86741   6.05997  10.29096
C            0.04166   6.23381   3.27436
C           12.58966   0.83956   3.27436
C           19.50282   6.23381   3.58219
C            6.95482   0.83956   3.58219
C           13.99337   4.33739  10.38676
C            1.44537   9.73164  10.38676
C           -5.46779   4.33739  10.07893
C            7.08021   9.73164  10.07893
C            0.99185   5.39425   2.45835
C           13.53985  -0.00000   2.45835
C           18.55263   5.39425   4.39820
C            6.00463  -0.00000   4.39820
C           13.04318   5.17695  11.20277
C            0.49518  10.57120  11.20277
C           -4.51760   5.17695   9.26292
C            8.03040  10.57120   9.26292
C            0.53860   4.60671   1.41957
C           13.08660  10.00096   1.41957
C           19.00587   4.60671   5.43698
C            6.45787  10.00096   5.43698
C           13.49643   5.96449  12.24155
C            0.94843   0.57024  12.24155
C           -4.97084   5.96449   8.22414
C            7.57716   0.57024   8.22414
H           -0.39349   4.54152   1.25217
H           12.15451   9.93577   1.25217
H           19.93796   4.54152   5.60438
H            7.38996   9.93577   5.60438
H           14.42852   6.02968  12.40895
H            1.88052   0.63543  12.40895
H           -5.90293   6.02968   8.05674
H            6.64507   0.63543   8.05674
C            1.43391   3.90675   0.61459
C           13.98192   9.30100   0.61459
C           18.11056   3.90675   6.24196
C            5.56256   9.30100   6.24196
C           12.60112   6.66445  13.04653
C            0.05312   1.27020  13.04653
C           -4.07553   6.66445   7.41916
C            8.47247   1.27020   7.41916
H           -9.90697   3.38457  13.49768
H            2.64103   8.77882  13.49768
H           18.43255   3.38457   6.96801
H            5.88455   8.77882   6.96801
H           23.94200   7.18663   0.16344
H           11.39400   1.79238   0.16344
H           -4.39752   7.18663   6.69311
H            8.15048   1.79238   6.69311
C            2.79143   3.97260   0.87139
C           15.33943   9.36685   0.87139
C           16.75305   3.97260   5.98516
C            4.20505   9.36685   5.98516
C           11.24361   6.59860  12.78973
C           -1.30439   1.20435  12.78973
C           -2.71802   6.59860   7.67596
C            9.82998   1.20435   7.67596
C            3.24301   4.73775   1.93304
C           15.79101  10.13200   1.93304
C           16.30147   4.73775   4.92351
C            3.75347  10.13200   4.92351
C           10.79202   5.83345  11.72808
C           -1.75598   0.43920  11.72808
C           -2.26644   5.83345   8.73761
C           10.28156   0.43920   8.73761
H            4.17263   4.76870   2.12996
H           16.72063  10.16295   2.12996
H           15.37184   4.76870   4.72659
H            2.82384  10.16295   4.72659
H            9.86240   5.80250  11.53116
H           -2.68560   0.40826  11.53116
H           -1.33681   5.80250   8.93453
H           11.21119   0.40826   8.93453
C            2.34784   5.46010   2.71325
C           14.89584   0.06585   2.71325
C           17.19664   5.46010   4.14330
C            4.64864   0.06585   4.14330
C           11.68719   5.11110  10.94787
C           -0.86081  10.50535  10.94787
C           -3.16161   5.11110   9.51782
C            9.38639  10.50535   9.51782
H            2.67134   6.00202   3.42419
H           15.21934   0.60777   3.42419
H           16.87313   6.00202   3.43236
H            4.32513   0.60777   3.43236
H           11.36369   4.56918  10.23693
H           -1.18431   9.96343  10.23693
H           -2.83810   4.56918  10.22876
H            9.70990   9.96343  10.22876
C            3.75583   3.24432   0.00000
C           -7.26306   3.24432  13.60914
C           16.30383   8.63857   0.00000
C            5.28494   8.63857  13.60914
C           15.78865   3.24432   6.85655
C            3.24065   8.63857   6.85655
C           21.29809   7.32688   0.05198
C           10.27920   7.32688  13.66112
C            8.75009   1.93263   0.05198
C           -2.26880   1.93263  13.66112
C           -1.75362   7.32688   6.80457
C           10.79438   1.93263   6.80457
C           -0.19434   9.81659   2.77694
C           12.35366   4.42234   2.77694
C           19.73881   9.81659   4.07961
C            7.19081   4.42234   4.07961
C           14.22937   0.75461  10.88418
C            1.68137   6.14886  10.88418
C           -5.70378   0.75461   9.58151
C            6.84422   6.14886   9.58151
C           -0.11224  10.27884   1.35506
C           12.43576   4.88459   1.35506
C           19.65671  10.27884   5.50149
C            7.10871   4.88459   5.50149
C           14.14727   0.29236  12.30606
C            1.59927   5.68661  12.30606
C           -5.62168   0.29236   8.15963
C            6.92632   5.68661   8.15963
C            1.04722   0.05334   0.87085
C           13.59522   5.44759   0.87085
C           18.49726   0.05334   5.98570
C            5.94926   5.44759   5.98570
C           12.98781  10.51786  12.79027
C            0.43981   5.12361  12.79027
C           -4.46223  10.51786   7.67542
C            8.08577   5.12361   7.67542
H            1.78920   0.17054   1.45087
H           14.33720   5.56479   1.45087
H           17.75528   0.17054   5.40568
H            5.20728   5.56479   5.40568
H           12.24583  10.40066  12.21025
H           -0.30217   5.00641  12.21025
H           -3.72025  10.40066   8.25544
H            8.82775   5.00641   8.25544
C           23.91170  10.12212   0.50544
C           11.36371   4.72787   0.50544
C           -4.36723  10.12212   6.35111
C            8.18077   4.72787   6.35111
C           -9.87668   0.44908  13.15568
C            2.67132   5.84333  13.15568
C           18.40226   0.44908   7.31001
C            5.85426   5.84333   7.31001
H           23.10296   9.74152   0.82893
H           10.55496   4.34727   0.82893
H           -3.55848   9.74152   6.02762
H            8.98952   4.34727   6.02762
H           -9.06793   0.82968  12.83219
H            3.48007   6.22393  12.83219
H           17.59351   0.82968   7.63350
H            5.04551   6.22393   7.63350
