         926

Zn           0.37355  12.29839   8.03061
Zn          12.54720  34.14469   8.03061
Zn         -12.45908  33.76423   8.03061
Zn          12.76686  33.76423  10.95487
Zn          -0.06577  12.29839  10.95487
Zn         -12.23942  34.14469  10.95487
Zn          22.85723  27.93855  29.50987
Zn          10.68358   6.09225  29.50987
Zn          35.68986   6.47271  29.50987
Zn          10.46392   6.47271  26.58561
Zn          23.29655  27.93855  26.58561
Zn          35.47020   6.09225  26.58561
Zn          -1.38233  14.73384   9.15875
Zn          11.31598  31.40633   9.15875
Zn          -9.47198  34.06715   9.15875
Zn           9.77976  34.06715   9.82673
Zn           1.69011  14.73384   9.82673
Zn         -11.00820  31.40633   9.82673
Zn          24.61311  25.50310  28.38173
Zn          11.91480   8.83061  28.38173
Zn          32.70276   6.16980  28.38173
Zn          13.45102   6.16980  27.71375
Zn          21.54067  25.50310  27.71375
Zn          34.23898   8.83061  27.71375
O            0.15109  13.58033   9.49274
O           11.54683  33.31349   9.49274
O          -11.24045  33.31591   9.49274
O           23.07969  26.65661  28.04774
O           11.68395   6.92345  28.04774
O           34.47123   6.92103  28.04774
Zn           0.15249  26.73658  29.64718
Zn           0.15249  26.73658  26.44830
Zn          23.07829  13.50036   7.89330
Zn          23.07829  13.50036  11.09218
Zn          -0.82549  25.38678  27.24988
Zn           1.81183  26.56210  27.24988
Zn          -0.52468  28.25843  27.24988
Zn           0.83246  28.25843  28.84561
Zn           1.13327  25.38678  28.84561
Zn          -1.50405  26.56210  28.84561
Zn          24.05627  14.85016  10.29061
Zn          21.41895  13.67484  10.29061
Zn          23.75546  11.97851  10.29061
Zn          22.39832  11.97851   8.69488
Zn          22.09751  14.85016   8.69488
Zn          24.73483  13.67484   8.69488
O            0.15249  26.73658  28.04774
O           23.07829  13.50036   9.49274
O           -1.66915  14.65871   7.50364
O           11.52445  31.19550   7.50364
O           -9.39363  34.35309   7.50364
O            9.70141  34.35309  11.48184
O            1.97693  14.65871  11.48184
O          -11.21667  31.19550  11.48184
O           24.89993  25.57823  30.03684
O           11.70633   9.04144  30.03684
O           32.62441   5.88384  30.03684
O           13.52937   5.88384  26.05864
O           21.25385  25.57823  26.05864
O           34.44745   9.04144  26.05864
O           -0.41835  13.03508   6.67609
O           12.30515  33.09054   6.67609
O          -11.42514  34.08168   6.67609
O           11.73292  34.08168  12.30939
O            0.72613  13.03508  12.30939
O          -11.99737  33.09054  12.30939
O           23.64913  27.20186  30.86439
O           10.92563   7.14640  30.86439
O           34.65592   6.15526  30.86439
O           11.49787   6.15526  25.23109
O           22.50466  27.20186  25.23109
O           35.22815   7.14640  25.23109
O           36.46636   8.04545  29.88469
O           21.10694  27.82465  29.88469
O           11.65736   4.63341  29.88469
O           34.49642   4.63341  26.21080
O            9.68742   8.04545  26.21080
O           25.04684  27.82465  26.21080
O          -13.23558  32.19149   7.65580
O            2.12384  12.41229   7.65580
O           11.57342  35.60353   7.65580
O          -11.26564  35.60353  11.32968
O           13.54336  32.19149  11.32968
O           -1.81606  12.41229  11.32968
O           35.49538   9.60608  28.66005
O           20.23950  26.20587  28.66005
O           13.49160   4.69399  28.66005
O           32.65939   4.69399  27.43543
O           10.65560   9.60608  27.43543
O           25.91149  26.20587  27.43543
O          -12.26460  30.63087   8.88042
O            2.99128  14.03107   8.88042
O            9.73918  35.54295   8.88042
O           -9.42861  35.54295  10.10506
O           12.57518  30.63087  10.10506
O           -2.68070  14.03107  10.10506
O           -1.40052  24.34233  28.52646
O            3.00387  26.58633  28.52646
O           -1.14168  29.27865  28.52646
O            1.44946  29.27865  27.56902
O            1.70830  24.34233  27.56902
O           -2.69609  26.58633  27.56902
O           24.63130  15.89461   9.01402
O           20.22691  13.65061   9.01402
O           24.37246  10.95829   9.01402
O           21.78132  10.95829   9.97146
O           21.52248  15.89461   9.97146
O           25.92688  13.65061   9.97146
O           -0.55686  25.25593  30.34485
O            1.79085  26.86017  30.34485
O           -0.77232  28.09122  30.34485
O            1.08010  28.09122  25.75063
O            0.86464  25.25593  25.75063
O           -1.48307  26.86017  25.75063
O           23.78764  14.98102   7.19563
O           21.43993  13.37677   7.19563
O           24.00310  12.14572   7.19563
O           22.15068  12.14572  11.78985
O           22.36614  14.98102  11.78985
O           24.71385  13.37677  11.78985
O           -0.08396  10.81289   8.42026
O           14.06243  34.49123   8.42026
O          -13.51680  34.90319   8.42026
O           13.82458  34.90319  10.56522
O            0.39174  10.81289  10.56522
O          -13.75465  34.49123  10.56522
O           23.31474  29.42405  29.12022
O            9.16835   5.74571  29.12022
O           36.74758   5.33375  29.12022
O            9.40620   5.33375  26.97526
O           22.83904  29.42405  26.97526
O           36.98543   5.74571  26.97526
O           -0.92063  16.23145   9.73024
O            9.78815  31.05737   9.73024
O           -8.40586  32.91849   9.73024
O            8.71364  32.91849   9.25524
O            1.22841  16.23145   9.25524
O           -9.48037  31.05737   9.25524
O           24.15141  24.00549  27.81024
O           13.44263   9.17957  27.81024
O           31.63664   7.31845  27.81024
O           14.51714   7.31845  28.28524
O           22.00237  24.00549  28.28524
O           32.71115   9.17957  28.28524
C           -3.79859  15.71044  35.74064
C           11.67835  28.82549  35.74064
C           -7.41809  35.67139  35.74064
C            7.72587  35.67139  20.35484
C            4.10637  15.71044  20.35484
C          -11.37057  28.82549  20.35484
C           27.02937  24.52650   1.79984
C           11.55243  11.41145   1.79984
C           30.64887   4.56555   1.79984
C           15.50491   4.56555  17.18564
C           19.12441  24.52650  17.18564
C           34.60135  11.41145  17.18564
C           -4.54432  14.78230  34.99473
C           12.85500  28.64374  34.99473
C           -7.84901  36.78127  34.99473
C            8.15679  36.78127  21.10075
C            4.85210  14.78230  21.10075
C          -12.54722  28.64374  21.10075
C           27.77510  25.45464   2.54575
C           10.37578  11.59320   2.54575
C           31.07979   3.45567   2.54575
C           15.07399   3.45567  16.43973
C           18.37868  25.45464  16.43973
C           35.77800  11.59320  16.43973
C           -4.90389  15.05614  33.66248
C           12.79764  28.19542  33.66248
C           -7.43208  36.95575  33.66248
C            7.73986  36.95575  22.43300
C            5.21167  15.05614  22.43300
C          -12.48986  28.19542  22.43300
C           28.13467  25.18080   3.87800
C           10.43314  12.04152   3.87800
C           30.66286   3.28119   3.87800
C           15.49092   3.28119  15.10748
C           18.01911  25.18080  15.10748
C           35.72064  12.04152  15.10748
C           -4.50514  16.27023  33.07614
C           11.54823  27.93128  33.07614
C           -6.57722  36.00338  33.07614
C            6.88780  36.00338  23.01933
C            4.81572  16.27023  23.01933
C          -11.23765  27.93128  23.01933
C           27.73592  23.96671   4.46433
C           11.68255  12.30566   4.46433
C           29.80800   4.23356   4.46433
C           16.34298   4.23356  14.52115
C           18.41506  23.96671  14.52115
C           34.46843  12.30566  14.52115
C           -3.75942  17.20805  33.81092
C           10.36179  28.11060  33.81092
C           -6.14070  34.88865  33.81092
C            6.44848  34.88865  22.28456
C            4.06720  17.20805  22.28456
C          -10.05401  28.11060  22.28456
C           26.99020  23.02889   3.72956
C           12.86899  12.12634   3.72956
C           29.37148   5.34829   3.72956
C           16.78230   5.34829  15.25592
C           19.16358  23.02889  15.25592
C           33.28479  12.12634  15.25592
C           -3.40684  16.92210  35.14317
C           10.43314  28.55892  35.14317
C           -6.56463  34.72629  35.14317
C            6.87241  34.72629  20.95231
C            3.71462  16.92210  20.95231
C          -10.12536  28.55892  20.95231
C           26.63762  23.31484   2.39731
C           12.79764  11.67802   2.39731
C           29.79541   5.51065   2.39731
C           16.35837   5.51065  16.58817
C           19.51616  23.31484  16.58817
C           33.35615  11.67802  16.58817
C           -3.41104  15.41237   0.00000
C           -3.41104  15.41237  37.11000
C           11.74271  29.31015   0.00000
C           11.74271  29.31015  37.11000
C           -7.87000  35.48479   0.00000
C           -7.87000  35.48479  37.11000
C            8.17778  35.48479  18.98548
C            3.71882  15.41237  18.98548
C          -11.43493  29.31015  18.98548
C           26.64182  24.82457   0.43048
C           26.64182  24.82457  37.54048
C           11.48807  10.92679   0.43048
C           11.48807  10.92679  37.54048
C           31.10078   4.75215   0.43048
C           31.10078   4.75215  37.54048
C           15.05300   4.75215  18.55500
C           19.51196  24.82457  18.55500
C           34.66571  10.92679  18.55500
C           -3.07106  15.16761   1.13928
C           11.78468  29.72696   1.13928
C           -8.25196  35.31274   1.13928
C            8.55974  35.31274  17.84620
C            3.37884  15.16761  17.84620
C          -11.47690  29.72696  17.84620
C           26.30184  25.06933  36.40120
C           11.44610  10.50998  36.40120
C           31.48274   4.92421  36.40120
C           14.67104   4.92421  19.69428
C           19.85194  25.06933  19.69428
C           34.70768  10.50998  19.69428
C           -2.64013  14.85743   2.49379
C           11.83785  30.25525   2.49379
C           -8.73605  35.09463   2.49379
C            9.04383  35.09463  16.49169
C            2.94791  14.85743  16.49169
C          -11.53007  30.25525  16.49169
C           25.87091  25.37951  35.04669
C           11.39293   9.98169  35.04669
C           31.96683   5.14231  35.04669
C           14.18695   5.14231  21.04879
C           20.28287  25.37951  21.04879
C           34.76085   9.98169  21.04879
C           -3.10743  15.60866   3.58483
C           11.41952  29.47736   3.58483
C           -7.85461  35.12371   3.58483
C            8.15959  35.12371  15.40065
C            3.41241  15.60866  15.40065
C          -11.11453  29.47736  15.40065
C           26.33821  24.62828  33.95565
C           11.81127  10.75958  33.95565
C           31.08539   5.11323  33.95565
C           15.07119   5.11323  22.13983
C           19.81837  24.62828  22.13983
C           34.34532  10.75958  22.13983
C           -2.67091  15.31786   4.89110
C           11.45589  29.99595   4.89110
C           -8.31911  34.89107   4.89110
C            8.62969  34.89107  14.09438
C            2.98149  15.31786  14.09438
C          -11.14531  29.99595  14.09438
C           25.90169  24.91908  32.64938
C           11.77489  10.24099  32.64938
C           31.54989   5.34586  32.64938
C           14.60109   5.34586  23.44610
C           20.24929  24.91908  23.44610
C           34.37609  10.24099  23.44610
C           -1.75170  14.27340   5.12860
C           11.90081  31.31424   5.12860
C           -9.68324  34.61724   5.12860
C            9.99382  34.61724  13.85688
C            2.06227  14.27340  13.85688
C          -11.59023  31.31424  13.85688
C           24.98248  25.96354  32.41188
C           11.32997   8.92270  32.41188
C           32.91403   5.61970  32.41188
C           13.23696   5.61970  23.68361
C           21.16851  25.96354  23.68361
C           34.82101   8.92270  23.68361
C           -1.29419  13.51975   4.02644
C           12.32334  32.08971   4.02644
C          -10.56748  34.59785   4.02644
C           10.87526  34.59785  14.95904
C            1.60197  13.51975  14.95904
C          -12.01556  32.08971  14.95904
C           24.52497  26.71719  33.51405
C           10.90744   8.14723  33.51405
C           33.79826   5.63909  33.51405
C           12.35552   5.63909  22.58144
C           21.62881  26.71719  22.58144
C           35.24634   8.14723  22.58144
C           -1.73491  13.81297   2.72388
C           12.28976  31.56142   2.72388
C          -10.09318  34.83292   2.72388
C           10.40096  34.83292  16.26160
C            2.04269  13.81297  16.26160
C          -11.98198  31.56142  16.26160
C           24.96569  26.42397  34.81660
C           10.94102   8.67552  34.81660
C           33.32396   5.40402  34.81660
C           12.82982   5.40402  21.27888
C           21.18809  26.42397  21.27888
C           35.21276   8.67552  21.27888
C           -1.25501  13.97533   6.51281
C           11.91060  31.89342   6.51281
C          -10.18972  34.33613   6.51281
C           10.50030  34.33613  12.47267
C            1.56559  13.97533  12.47267
C          -11.60002  31.89342  12.47267
C           24.48579  26.26161  31.02767
C           11.32018   8.34352  31.02767
C           33.42050   5.90081  31.02767
C           12.73048   5.90081  25.06781
C           21.66519  26.26161  25.06781
C           34.83080   8.34352  25.06781
C           -5.67480  14.08438  32.89802
C           14.02326  28.01610  32.89802
C           -7.89099  38.10926  32.89802
C            8.19597  38.10926  23.19746
C            5.97978  14.08438  23.19746
C          -13.71827  28.01610  23.19746
C           28.90558  26.15256   4.64246
C            9.20752  12.22085   4.64246
C           31.12177   2.12769   4.64246
C           15.03481   2.12769  14.34302
C           17.25100  26.15256  14.34302
C           36.94906  12.22085  14.34302
C           -6.31139  13.25803  32.27086
C           15.05860  27.87554  32.27086
C           -8.28553  39.07374  32.27086
C            8.59331  39.07374  23.82462
C            6.61917  13.25803  23.82462
C          -14.75082  27.87554  23.82462
C           29.54217  26.97891   5.26962
C            8.17218  12.36140   5.26962
C           31.51631   1.16320   5.26962
C           14.63747   1.16320  13.71586
C           16.61161  26.97891  13.71586
C           37.98160  12.36140  13.71586
C           -7.07670  12.25720  31.53979
C           38.76930  12.25720  31.53979
C           16.30800  27.71318  31.53979
C           14.15337   0.53314  31.53979
C           -8.76963  40.23694  31.53979
C           32.00041   0.53314  24.55569
C            9.07741  40.23694  24.55569
C            7.38448  12.25720  24.55569
C          -16.00022  27.71318  24.55569
C           29.84578  27.71318  24.55569
C          -15.53852  27.97974   6.00069
C           30.30748  27.97974   6.00069
C            6.92278  12.52376   6.00069
C           32.00041  -0.00000   6.00069
C            9.07741  39.70380   6.00069
C           14.15337  -0.00000  12.98479
C           -8.76963  39.70380  12.98479
C           15.84630  27.97974  12.98479
C           -6.61500  12.52376  12.98479
C           39.23100  12.52376  12.98479
C           38.93159  10.89529  31.83667
C           17.40630  28.53469  31.83667
C           12.89278   1.07354  31.83667
C           33.26100   1.07354  24.25881
C            7.22219  10.89529  24.25881
C           28.74748  28.53469  24.25881
C          -15.70081  29.34165   5.70381
C            5.82448  11.70225   5.70381
C           10.33800  39.16340   5.70381
C          -10.03022  39.16340  13.28167
C           16.00859  29.34165  13.28167
C           -5.51670  11.70225  13.28167
C           38.16768   9.92595  31.16498
C           18.62772  28.35778  31.16498
C           12.43527   2.21977  31.16498
C           33.71851   2.21977  24.93050
C            7.98610   9.92595  24.93050
C           27.52606  28.35778  24.93050
C          -14.93690  30.31099   6.37550
C            4.60306  11.87916   6.37550
C           10.79551  38.01717   6.37550
C          -10.48773  38.01717  12.60998
C           15.24468  30.31099  12.60998
C           -4.29528  11.87916  12.60998
C           37.22328  10.29672  30.18157
C           18.77743  27.35695  30.18157
C           13.22576   2.85226  30.18157
C           32.92522   2.85226  25.91392
C            8.92770  10.29672  25.91392
C           27.37355  27.35695  25.91392
C          -13.99250  29.94022   7.35891
C            4.45335  12.87999   7.35891
C           10.00502  37.38468   7.35891
C           -9.69444  37.38468  11.62657
C           14.30308  29.94022  11.62657
C           -4.14277  12.87999  11.62657
C           37.08477  11.66590  29.87726
C           17.66234  26.54998  29.87726
C           14.48356   2.28763  29.87726
C           31.67022   2.28763  26.21822
C            9.06901  11.66590  26.21822
C           28.49144  26.54998  26.21822
C          -13.85399  28.57104   7.66322
C            5.56844  13.68696   7.66322
C            8.74722  37.94931   7.66322
C           -8.43944  37.94931  11.32226
C           14.16177  28.57104  11.32226
C           -5.26066  13.68696  11.32226
C           37.85148  12.63523  30.54895
C           16.43952  26.72931  30.54895
C           14.93967   1.13897  30.54895
C           31.21411   1.13897  25.54653
C            8.30230  12.63523  25.54653
C           29.71426  26.72931  25.54653
C          -14.62070  27.60171   6.99153
C            6.79126  13.50763   6.99153
C            8.29111  39.09797   6.99153
C           -7.98333  39.09797  11.99395
C           14.92848  27.60171  11.99395
C           -6.48348  13.50763  11.99395
C           36.35583   9.25954  29.52472
C           20.11078  27.12189  29.52472
C           12.76406   4.12208  29.52472
C           33.38972   4.12208  26.57076
C            9.79795   9.25954  26.57076
C           26.04300  27.12189  26.57076
C          -13.12505  30.97740   8.01576
C            3.12000  13.11505   8.01576
C           10.46672  36.11486   8.01576
C          -10.15894  36.11486  10.96972
C           13.43283  30.97740  10.96972
C           -2.81222  13.11505  10.96972
C           -3.32989  18.45607  33.19490
C            9.06481  27.86100  33.19490
C           -5.27745  33.89266  33.19490
C            5.58243  33.89266  22.90058
C            3.63487  18.45607  22.90058
C           -8.75983  27.86100  22.90058
C           26.56067  21.78087   4.34558
C           14.16597  12.37594   4.34558
C           28.50823   6.34428   4.34558
C           17.64835   6.34428  14.63990
C           19.59591  21.78087  14.63990
C           31.99061  12.37594  14.63990
C           -2.96472  19.49083  32.67536
C            7.98750  27.65744  32.67536
C           -4.56111  33.05904  32.67536
C            4.86889  33.05904  23.42012
C            3.27250  19.49083  23.42012
C           -7.67972  27.65744  23.42012
C           26.19550  20.74611   4.86512
C           15.24328  12.57950   4.86512
C           27.79189   7.17790   4.86512
C           18.36189   7.17790  14.12036
C           19.95828  20.74611  14.12036
C           30.91050  12.57950  14.12036
C           -2.51561  20.71461  32.03336
C            6.70172  27.43692  32.03336
C           -3.72864  32.05821  32.03336
C            4.03362  32.05821  24.06213
C            2.82059  20.71461  24.06213
C           -6.39674  27.43692  24.06213
C           25.74639  19.52233   5.50713
C           16.52906  12.80002   5.50713
C           26.95942   8.17873   5.50713
C           19.19716   8.17873  13.47835
C           20.41019  19.52233  13.47835
C           29.62752  12.80002  13.47835
C           -2.86119  20.98360  30.60833
C            6.64436  26.99830  30.60833
C           -3.31730  32.22299  30.60833
C            3.62788  32.22299  25.48715
C            3.17177  20.98360  25.48715
C           -6.33378  26.99830  25.48715
C           26.09197  19.25334   6.93215
C           16.58642  13.23864   6.93215
C           26.54808   8.01395   6.93215
C           19.60290   8.01395  12.05333
C           20.05901  19.25334  12.05333
C           29.56456  13.23864  12.05333
C           -2.44146  22.12741  29.90324
C            5.44252  26.79232  29.90324
C           -2.53939  31.28759  29.90324
C            2.84717  31.28759  26.19224
C            2.74924  22.12741  26.19224
C           -5.13474  26.79232  26.19224
C           25.67224  18.10953   7.63724
C           17.78826  13.44463   7.63724
C           25.77018   8.94935   7.63724
C           20.38361   8.94935  11.34824
C           20.48154  18.10953  11.34824
C           28.36552  13.44463  11.34824
C           -1.60339  23.06039  30.71595
C            4.21550  27.05161  30.71595
C           -2.15044  30.09531  30.71595
C            2.45822  30.09531  25.37953
C            1.91117  23.06039  25.37953
C           -3.90772  27.05161  25.37953
C           24.83417  17.17655   6.82453
C           19.01528  13.18533   6.82453
C           25.38122  10.14163   6.82453
C           20.77256  10.14163  12.16095
C           21.31961  17.17655  12.16095
C           27.13850  13.18533  12.16095
C           -1.43130  22.98527  31.94429
C            4.19452  27.23821  31.94429
C           -2.30155  29.98384  31.94429
C            2.60933  29.98384  24.15119
C            1.73908  22.98527  24.15119
C           -3.88674  27.23821  24.15119
C           24.66208  17.25167   5.59619
C           19.03626  12.99873   5.59619
C           25.53233  10.25310   5.59619
C           20.62145  10.25310  13.38929
C           21.49170  17.25167  13.38929
C           27.11752  12.99873  13.38929
C           -1.85803  21.83419  32.61227
C            5.40475  27.44419  32.61227
C           -3.08505  30.92893  32.61227
C            3.39283  30.92893  23.48321
C            2.16581  21.83419  23.48321
C           -5.09697  27.44419  23.48321
C           25.08881  18.40275   4.92821
C           17.82603  12.79275   4.92821
C           26.31583   9.30801   4.92821
C           19.83795   9.30801  14.05727
C           21.06497  18.40275  14.05727
C           28.32775  12.79275  14.05727
C           -1.09412  24.24782  29.95519
C            2.93252  26.89894  29.95519
C           -1.37674  29.06055  29.95519
C            1.68452  29.06055  26.14029
C            1.40190  24.24782  26.14029
C           -2.62474  26.89894  26.14029
C           24.32490  15.98912   7.58529
C           20.29826  13.33800   7.58529
C           24.60751  11.17639   7.58529
C           21.54627  11.17639  11.40019
C           21.82889  15.98912  11.40019
C           25.85552  13.33800  11.40019
C            0.15249  10.18040   9.49274
C           14.49196  35.01224   9.49274
C          -14.18278  35.01467   9.49274
C           23.07829  30.05654  28.04774
C            8.73882   5.22470  28.04774
C           37.41356   5.22228  28.04774
C            0.15529   8.68279   9.49274
C           15.78893  35.76105   9.49274
C          -15.47835  35.76105   9.49274
C           23.07549  31.55415  28.04774
C            7.44185   4.47589  28.04774
C           38.70913   4.47589  28.04774
C            0.41552   7.94610  10.69511
C           16.29541  36.35719  10.69511
C          -16.24926  35.90402  10.69511
C           16.55704  35.90402   8.29038
C           -0.10774   7.94610   8.29038
C          -15.98763  36.35719   8.29038
C           22.81526  32.29085  26.84538
C            6.93537   3.87975  26.84538
C           39.48004   4.33291  26.84538
C            6.67374   4.33291  29.25010
C           23.33852  32.29085  29.25010
C           39.21841   3.87975  29.25010
C            0.39034   6.55995  10.58377
C           17.50844  37.02845  10.58377
C          -17.43711  36.61891  10.58377
C           17.74489  36.61891   8.40171
C           -0.08256   6.55995   8.40171
C          -17.20066  37.02845   8.40171
C           22.84044  33.67699  26.95671
C            5.72234   3.20849  26.95671
C           40.66789   3.61803  26.95671
C            5.48589   3.61803  29.13877
C           23.31334  33.67699  29.13877
C           40.43144   3.20849  29.13877
C            0.15109   5.79660   9.49274
C           18.28914  37.20293   9.49274
C          -17.97856  37.20778   9.49274
C           23.07969  34.44034  28.04774
C            4.94164   3.03401  28.04774
C           41.20934   3.02916  28.04774
C            0.15389   4.34745   9.49274
C           19.54274  37.92993   9.49274
C          -19.23496  37.92993   9.49274
C           23.07689  35.88949  28.04774
C            3.68804   2.30701  28.04774
C           42.46574   2.30701  28.04774
C            0.15249   3.13337   9.49274
C           20.59347  38.53818   9.49274
C          -20.28849  38.53818   9.49274
C           23.07829  37.10357  28.04774
C            2.63731   1.69876  28.04774
C           43.51927   1.69876  28.04774
C            0.15669   1.67695   9.49274
C           21.85407  39.26760   9.49274
C          -21.54909  39.26276   9.49274
C           23.07409  38.55999  28.04774
C            1.37671   0.96934  28.04774
C           44.77987   0.97418  28.04774
C            1.36552   0.96934   9.49274
C           44.78546   0.96449   9.49274
C           23.07969  38.56969   9.49274
C           21.86526  39.26760  28.04774
C          -21.55468  39.27245  28.04774
C            0.15109   1.66725  28.04774
C            0.15249  16.86394   9.49274
C            8.70245  31.67290   9.49274
C           -8.39746  31.67290   9.49274
C           23.07829  23.37300  28.04774
C           14.52833   8.56404  28.04774
C           31.62824   8.56404  28.04774
C            0.15389  18.36398   9.49274
C            7.40407  30.92166   9.49274
C           -7.09629  30.92166   9.49274
C           23.07689  21.87296  28.04774
C           15.82671   9.31528  28.04774
C           30.32707   9.31528  28.04774
C           -1.02976  19.08613   9.74880
C            7.37049  29.53552   9.74880
C           -5.87907  31.58566   9.74880
C            6.18685  31.58566   9.23668
C            1.33754  19.08613   9.23668
C           -7.06271  29.53552   9.23668
C           24.26054  21.15081  27.79168
C           15.86029  10.70142  27.79168
C           29.10985   8.65128  27.79168
C           17.04393   8.65128  28.30380
C           21.89325  21.15081  28.30380
C           30.29349  10.70142  28.30380
C           -1.02976  20.49166   9.74880
C            6.15327  28.83276   9.74880
C           -4.66184  30.88289   9.74880
C            4.96962  30.88289   9.23668
C            1.33754  20.49166   9.23668
C           -5.84549  28.83276   9.23668
C           24.26054  19.74528  27.79168
C           17.07751  11.40418  27.79168
C           27.89262   9.35405  27.79168
C           18.26116   9.35405  28.30380
C           21.89325  19.74528  28.30380
C           29.07627  11.40418  28.30380
C            0.15529  21.20170   9.49274
C            4.94584  29.50402   9.49274
C           -4.63946  29.50160   9.49274
C           23.07549  19.03524  28.04774
C           18.28494  10.73292  28.04774
C           27.87024  10.73535  28.04774
C            0.15529  22.65569   9.49274
C            3.68664  28.77702   9.49274
C           -3.38026  28.77460   9.49274
C           23.07549  17.58125  28.04774
C           19.54414  11.45992  28.04774
C           26.61104  11.46234  28.04774
C            0.15669  23.86978   9.49274
C            2.63451  28.17119   9.49274
C           -2.32953  28.16634   9.49274
C           23.07409  16.36716  28.04774
C           20.59627  12.06575  28.04774
C           25.56031  12.07060  28.04774
C            0.15669  25.32378   9.49274
C            1.37531  27.44419   9.49274
C           -1.07033  27.43934   9.49274
C           23.07409  14.91316  28.04774
C           21.85547  12.79275  28.04774
C           24.30111  12.79760  28.04774
C            1.36972  26.03381   9.49274
C            0.15389  28.13969   9.49274
C           -1.06194  26.03381   9.49274
C           21.86106  14.20313  28.04774
C           23.07689  12.09726  28.04774
C           24.29272  14.20313  28.04774
H           -4.81854  13.96322  35.39552
H           13.70286  28.81337  35.39552
H           -8.41845  37.42830  35.39552
H            8.72903  37.42830  20.69996
H            5.12912  13.96322  20.69996
H          -13.39228  28.81337  20.69996
H           28.04932  26.27372   2.14496
H            9.52792  11.42357   2.14496
H           31.64923   2.80864   2.14496
H           14.50175   2.80864  16.84052
H           18.10166  26.27372  16.84052
H           36.62306  11.42357  16.84052
H           -4.75278  16.46652  32.16695
H           11.49926  27.62352  32.16695
H           -6.28901  36.11970  32.16695
H            6.59399  36.11970  23.92853
H            5.05777  16.46652  23.92853
H          -11.19428  27.62352  23.92853
H           27.98357  23.77042   5.37353
H           11.73152  12.61342   5.37353
H           29.51979   4.11724   5.37353
H           16.63679   4.11724  13.61195
H           18.17301  23.77042  13.61195
H           34.42506  12.61342  13.61195
H           -2.91715  17.57640  35.65529
H            9.62166  28.65585  35.65529
H           -6.24284  33.97506  35.65529
H            6.55062  33.97506  20.44019
H            3.22493  17.57640  20.44019
H           -9.31388  28.65585  20.44019
H           26.14794  22.66054   1.88519
H           13.60912  11.58109   1.88519
H           29.47362   6.26188   1.88519
H           16.68016   6.26188  17.10029
H           20.00585  22.66054  17.10029
H           32.54466  11.58109  17.10029
H           -3.74263  16.30658   3.44381
H           11.13410  28.57588   3.44381
H           -6.92980  35.32485   3.44381
H            7.23758  35.32485  15.54167
H            4.05041  16.30658  15.54167
H          -10.82632  28.57588  15.54167
H           26.97341  23.93036  34.09667
H           12.09668  11.66106  34.09667
H           30.16058   4.91209  34.09667
H           15.99320   4.91209  21.99881
H           19.18037  23.93036  21.99881
H           34.05710  11.66106  21.99881
H           -3.00950  15.83160   5.63330
H           11.17887  29.44828   5.63330
H           -7.70770  34.92742   5.63330
H            8.01548  34.92742  13.35218
H            3.31728  15.83160  13.35218
H          -10.87109  29.44828  13.35218
H           26.24028  24.40534  31.90718
H           12.05191  10.78866  31.90718
H           30.93848   5.30951  31.90718
H           15.21530   5.30951  24.18830
H           19.91350  24.40534  24.18830
H           34.10187  10.78866  24.18830
H           -0.67019  12.81214   4.14890
H           12.62555  32.98149   4.14890
H          -11.48949  34.41126   4.14890
H           11.80007  34.41126  14.83658
H            0.98076  12.81214  14.83658
H          -12.31497  32.98149  14.83658
H           23.90097  27.42480  33.39158
H           10.60523   7.25545  33.39158
H           34.72027   5.82568  33.39158
H           11.43071   5.82568  22.70390
H           22.25002  27.42480  22.70390
H           35.54575   7.25545  22.70390
H           -1.40472  13.28953   1.99652
H           12.57798  32.10910   1.99652
H          -10.71159  34.80868   1.99652
H           11.01937  34.80868  16.98896
H            1.71250  13.28953  16.98896
H          -12.27020  32.10910  16.98896
H           24.63550  26.94741  35.54396
H           10.65280   8.12784  35.54396
H           33.94237   5.42826  35.54396
H           12.21141   5.42826  20.55152
H           21.51828  26.94741  20.55152
H           35.50098   8.12784  20.55152
H           39.55839  10.62872  32.50094
H           17.32375  29.21080  32.50094
H           12.34852   0.66400  32.50094
H           33.80526   0.66400  23.59454
H            6.59539  10.62872  23.59454
H           28.83003  29.21080  23.59454
H          -16.32761  29.60822   5.03954
H            5.90703  11.02614   5.03954
H           10.88226  39.57294   5.03954
H          -10.57448  39.57294  13.94594
H           16.63539  29.60822  13.94594
H           -5.59925  11.02614  13.94594
H           38.29920   9.00024  31.38764
H           19.36505  28.93211  31.38764
H           11.57062   2.56873  31.38764
H           34.58596   2.56873  24.70784
H            7.85738   9.00024  24.70784
H           26.79152  28.93211  24.70784
H          -15.06842  31.23670   6.15284
H            3.86573  11.30483   6.15284
H           11.66016  37.66821   6.15284
H          -11.35518  37.66821  12.83264
H           15.37340  31.23670  12.83264
H           -3.56074  11.30483  12.83264
H           36.46496  11.93974  29.19815
H           17.73509  25.87630  29.19815
H           15.03062   2.68747  29.19815
H           31.12317   2.68747  26.89733
H            9.68882  11.93974  26.89733
H           28.41869  25.87630  26.89733
H          -13.23418  28.29720   8.34233
H            5.49569  14.36064   8.34233
H            8.20017  37.54946   8.34233
H           -7.89239  37.54946  10.64315
H           13.54196  28.29720  10.64315
H           -5.18791  14.36064  10.64315
H           37.72416  13.56822  30.34856
H           15.69519  26.15256  30.34856
H           15.81132   0.78274  30.34856
H           30.34246   0.78274  25.74692
H            8.42962  13.56822  25.74692
H           30.45859  26.15256  25.74692
H          -14.49338  26.66872   7.19192
H            7.53559  14.08438   7.19192
H            7.41946  39.45420   7.19192
H           -7.11168  39.45420  11.79356
H           14.80116  26.66872  11.79356
H           -7.22781  14.08438  11.79356
H           -3.51317  20.19844  30.05168
H            7.64892  26.82866  30.05168
H           -3.67407  33.18021  30.05168
H            3.98185  33.18021  26.04380
H            3.82095  20.19844  26.04380
H           -7.34114  26.82866  26.04380
H           26.74396  20.03850   7.48880
H           15.58186  13.40828   7.48880
H           26.90485   7.05673   7.48880
H           19.24893   7.05673  11.49668
H           19.40983  20.03850  11.49668
H           30.57192  13.40828  11.49668
H           -2.66671  22.38186  28.82705
H            5.33479  26.47001  28.82705
H           -2.20641  31.35544  28.82705
H            2.51419  31.35544  27.26843
H            2.97449  22.38186  27.26843
H           -5.02701  26.47001  27.26843
H           25.89749  17.85508   8.71343
H           17.89599  13.76693   8.71343
H           25.43719   8.88150   8.71343
H           20.71659   8.88150  10.27205
H           20.25629  17.85508  10.27205
H           28.25779  13.76693  10.27205
H           -0.94581  23.85039  32.50094
H            3.20255  27.22609  32.50094
H           -1.79507  29.13083  32.50094
H            2.10285  29.13083  23.59454
H            1.25359  23.85039  23.59454
H           -2.89477  27.22609  23.59454
H           24.17659  16.38655   5.03954
H           20.02823  13.01085   5.03954
H           25.02585  11.10611   5.03954
H           21.12793  11.10611  13.94594
H           21.97719  16.38655  13.94594
H           26.12555  13.01085  13.94594
H           -1.61318  21.82692  33.72557
H            5.28722  27.66229  33.72557
H           -3.21656  30.72053  33.72557
H            3.52155  30.72053  22.36991
H            1.91817  21.82692  22.36991
H           -4.98224  27.66229  22.36991
H           24.84396  18.41002   3.81491
H           17.94356  12.57465   3.81491
H           26.44734   9.51641   3.81491
H           19.70924   9.51641  15.17057
H           21.31261  18.41002  15.17057
H           28.21302  12.57465  15.17057
H            0.61280   8.36533  11.53379
H           15.83370  36.31842  11.53379
H          -15.98483  35.52356  11.53379
H           16.29261  35.52356   7.45169
H           -0.30502   8.36533   7.45169
H          -15.52592  36.31842   7.45169
H           22.61798  31.87161  26.00669
H            7.39708   3.91852  26.00669
H           39.21561   4.71338  26.00669
H            6.93817   4.71338  30.08879
H           23.53580  31.87161  30.08879
H           38.75670   3.91852  30.08879
H            0.56523   6.06317  11.38535
H           17.85122  37.42830  11.38535
H          -17.95478  36.71584  11.38535
H           18.26256  36.71584   7.60013
H           -0.25745   6.06317   7.60013
H          -17.54344  37.42830   7.60013
H           22.66555  34.17377  26.15513
H            5.37956   2.80864  26.15513
H           41.18556   3.52110  26.15513
H            4.96822   3.52110  29.94035
H           23.48823  34.17377  29.94035
H           40.77422   2.80864  29.94035
H            2.21618   1.45885   9.49274
H           43.93480   1.45885   9.49274
H           23.07549  37.58824   9.49274
H           21.01460  38.77809  28.04774
H          -20.70403  38.77809  28.04774
H            0.15529   2.64870  28.04774
H           -1.86223  18.60874   9.93806
H            8.20156  29.05086   9.93806
H           -5.87347  32.54529   9.93806
H            6.18405  32.54529   9.04742
H            2.17280  18.60874   9.04742
H           -7.89099  29.05086   9.04742
H           25.09301  21.62820  27.60242
H           15.02922  11.18608  27.60242
H           29.10425   7.69165  27.60242
H           17.04673   7.69165  28.49306
H           21.05798  21.62820  28.49306
H           31.12177  11.18608  28.49306
H           -1.84124  20.95209   9.93806
H            6.16026  27.89978   9.93806
H           -3.85736  31.35544   9.93806
H            4.16514  31.35544   9.04742
H            2.14902  20.95209   9.04742
H           -5.85248  27.89978   9.04742
H           25.07202  19.28485  27.60242
H           17.07052  12.33716  27.60242
H           27.08814   8.88150  27.60242
H           19.06564   8.88150  28.49306
H           21.08176  19.28485  28.49306
H           29.08326  12.33716  28.49306
H            2.19239  25.55884   9.49274
H            0.15249  29.09205   9.49274
H           -1.88741  25.55884   9.49274
H           21.03839  14.67810  28.04774
H           23.07829  11.14489  28.04774
H           25.11819  14.67810  28.04774
