         424
 
 C     6.417000       6.417000       2.836000             
 C     6.417000       19.25200       15.67100             
 C     19.25200       6.417000       15.67100             
 C     19.25200       19.25200       2.836000             
 C     19.25200       6.417000       2.836000             
 C     19.25200       19.25200       15.67100             
 C     6.417000       6.417000       15.67100             
 C     6.417000       19.25200       2.836000             
 C     6.417000       22.83300       6.417000             
 C     6.417000       9.999000       19.25200             
 C     19.25200       22.83300       19.25200             
 C     19.25200       9.999000       6.417000             
 C     6.417000       19.25200       22.83300             
 C     6.417000       6.417000       9.998000             
 C     19.25200       19.25200       9.998000             
 C     19.25200       6.417000       22.83300             
 C     6.417000       2.836000       19.25200             
 C     6.417000       15.67000       6.417000             
 C     19.25200       2.836000       6.417000             
 C     19.25200       15.67000       19.25200             
 C     2.836000       6.417000       19.25200             
 C     2.836000       19.25200       6.417000             
 C     15.67000       6.417000       6.417000             
 C     15.67000       19.25200       19.25200             
 C     22.83300       6.417000       6.417000             
 C     22.83300       19.25200       19.25200             
 C     9.999000       6.417000       19.25200             
 C     9.999000       19.25200       6.417000             
 C     2.836000       6.417000       6.417000             
 C     2.836000       19.25200       19.25200             
 C     15.67000       6.417000       19.25200             
 C     15.67000       19.25200       6.417000             
 C     6.417000       2.836000       6.417000             
 C     6.417000       15.67000       19.25200             
 C     19.25200       2.836000       19.25200             
 C     19.25200       15.67000       6.417000             
 C     19.25200       22.83300       6.417000             
 C     19.25200       9.999000       19.25200             
 C     6.417000       22.83300       19.25200             
 C     6.417000       9.999000       6.417000             
 C     22.83300       19.25200       6.417000             
 C     22.83300       6.417000       19.25200             
 C     9.999000       19.25200       19.25200             
 C     9.999000       6.417000       6.417000             
 C     6.417000       6.417000       22.83300             
 C     6.417000       19.25200       9.998000             
 C     19.25200       6.417000       9.998000             
 C     19.25200       19.25200       22.83300             
 C     7.266000       5.568000      0.6750000            
 C     7.266000       18.40300       13.51000            
 C     20.10100       5.568000       13.51000            
 C     20.10100       18.40300      0.6750000            
 C     20.10100       7.266000      0.6750000            
 C     20.10100       20.10100       13.51000            
 C     7.266000       7.266000       13.51000            
 C     7.266000       20.10100      0.6750000            
 C     18.40300       20.10100      0.6750000            
 C     18.40300       7.266000       13.51000            
 C     5.568000       20.10100       13.51000            
 C     5.568000       7.266000      0.6750000            
 C     5.568000       18.40300      0.6750000            
 C     5.568000       5.568000       13.51000            
 C     18.40300       18.40300       13.51000            
 C     18.40300       5.568000      0.6750000            
 C     7.266000       24.99400       5.568000            
 C     7.266000       12.15900       18.40200            
 C     20.10100       24.99400       18.40200            
 C     20.10100       12.15900       5.568000            
 C     7.266000       20.10100       24.99400            
 C     7.266000       7.266000       12.15900            
 C     20.10100       20.10100       12.15900            
 C     20.10100       7.266000       24.99400            
 C     7.266000      0.6750000       20.10100            
 C     7.266000       13.51000       7.267000            
 C     20.10100      0.6750000       7.267000            
 C     20.10100       13.51000       20.10100            
 C    0.6750000       5.568000       18.40200            
 C    0.6750000       18.40300       5.568000            
 C     13.51000       5.568000       5.568000            
 C     13.51000       18.40300       18.40200            
 C     18.40300       5.568000       24.99400            
 C     18.40300       18.40300       12.15900            
 C     5.568000       5.568000       12.15900            
 C     5.568000       18.40300       24.99400            
 C     24.99400       5.568000       7.267000            
 C     24.99400       18.40300       20.10100            
 C     12.15900       5.568000       20.10100            
 C     12.15900       18.40300       7.267000            
 C    0.6750000       7.266000       5.568000            
 C    0.6750000       20.10100       18.40200            
 C     13.51000       7.266000       18.40200            
 C     13.51000       20.10100       5.568000            
 C     5.568000      0.6750000       7.267000            
 C     5.568000       13.51000       20.10100            
 C     18.40300      0.6750000       20.10100            
 C     18.40300       13.51000       7.267000            
 C     20.10100       24.99400       7.267000            
 C     20.10100       12.15900       20.10100            
 C     7.266000       24.99400       20.10100            
 C     7.266000       12.15900       7.267000            
 C    0.6750000       18.40300       20.10100            
 C    0.6750000       5.568000       7.267000            
 C     13.51000       18.40300       7.267000            
 C     13.51000       5.568000       20.10100            
 C     20.10100      0.6750000       18.40200            
 C     20.10100       13.51000       5.568000            
 C     7.266000      0.6750000       5.568000            
 C     7.266000       13.51000       18.40200            
 C     24.99400       18.40300       5.568000            
 C     24.99400       5.568000       18.40200            
 C     12.15900       18.40300       18.40200            
 C     12.15900       5.568000       5.568000            
 C     24.99400       7.266000       20.10100            
 C     24.99400       20.10100       7.267000            
 C     12.15900       7.266000       7.267000            
 C     12.15900       20.10100       20.10100            
 C     5.568000       24.99400       18.40200            
 C     5.568000       12.15900       5.568000            
 C     18.40300       24.99400       5.568000            
 C     18.40300       12.15900       18.40200            
 C     5.568000       7.266000       24.99400            
 C     5.568000       20.10100       12.15900            
 C     18.40300       7.266000       12.15900            
 C     18.40300       20.10100       24.99400            
 C     20.10100       18.40300       24.99400            
 C     20.10100       5.568000       12.15900            
 C     7.266000       18.40300       12.15900            
 C     7.266000       5.568000       24.99400            
 C     18.40300      0.6750000       5.568000            
 C     18.40300       13.51000       18.40200            
 C     5.568000      0.6750000       18.40200            
 C     5.568000       13.51000       5.568000            
 C     18.40300       24.99400       20.10100            
 C     18.40300       12.15900       7.267000            
 C     5.568000       24.99400       7.267000            
 C     5.568000       12.15900       20.10100            
 C    0.6750000       20.10100       7.267000            
 C    0.6750000       7.266000       20.10100            
 C     13.51000       20.10100       20.10100            
 C     13.51000       7.266000       7.267000            
 C     24.99400       20.10100       18.40200            
 C     24.99400       7.266000       5.568000            
 C     12.15900       20.10100       5.568000            
 C     12.15900       7.266000       18.40200            
 C     6.417000       6.417000       1.381000             
 C     6.417000       19.25200       14.21500             
 C     19.25200       6.417000       14.21500             
 C     19.25200       19.25200       1.381000             
 C     19.25200       6.417000       1.381000             
 C     19.25200       19.25200       14.21500             
 C     6.417000       6.417000       14.21500             
 C     6.417000       19.25200       1.381000             
 C     6.417000       24.28900       6.417000             
 C     6.417000       11.45400       19.25200             
 C     19.25200       24.28900       19.25200             
 C     19.25200       11.45400       6.417000             
 C     6.417000       19.25200       24.28800             
 C     6.417000       6.417000       11.45400             
 C     19.25200       19.25200       11.45400             
 C     19.25200       6.417000       24.28800             
 C     6.417000       1.380000       19.25200             
 C     6.417000       14.21500       6.417000             
 C     19.25200       1.380000       6.417000             
 C     19.25200       14.21500       19.25200             
 C     1.380000       6.417000       19.25200             
 C     1.380000       19.25200       6.417000             
 C     14.21500       6.417000       6.417000             
 C     14.21500       19.25200       19.25200             
 C     24.28900       6.417000       6.417000             
 C     24.28900       19.25200       19.25200             
 C     11.45400       6.417000       19.25200             
 C     11.45400       19.25200       6.417000             
 C     1.380000       6.417000       6.417000             
 C     1.380000       19.25200       19.25200             
 C     14.21500       6.417000       19.25200             
 C     14.21500       19.25200       6.417000             
 C     6.417000       1.380000       6.417000             
 C     6.417000       14.21500       19.25200             
 C     19.25200       1.380000       19.25200             
 C     19.25200       14.21500       6.417000             
 C     19.25200       24.28900       6.417000             
 C     19.25200       11.45400       19.25200             
 C     6.417000       24.28900       19.25200             
 C     6.417000       11.45400       6.417000             
 C     24.28900       19.25200       6.417000             
 C     24.28900       6.417000       19.25200             
 C     11.45400       19.25200       19.25200             
 C     11.45400       6.417000       6.417000             
 C     6.417000       6.417000       24.28800             
 C     6.417000       19.25200       11.45400             
 C     19.25200       6.417000       11.45400             
 C     19.25200       19.25200       24.28800             
 Zn    7.534000       5.300000       5.301000              
 Zn    7.534000       18.13500       18.13500              
 Zn    20.36900       5.300000       18.13500              
 Zn    20.36900       18.13500       5.301000              
 Zn    20.36900       7.534000       5.301000              
 Zn    20.36900       20.36900       18.13500              
 Zn    7.534000       7.534000       18.13500              
 Zn    7.534000       20.36900       5.301000              
 Zn    18.13500       20.36900       5.301000              
 Zn    18.13500       7.534000       18.13500              
 Zn    5.300000       20.36900       18.13500              
 Zn    5.300000       7.534000       5.301000              
 Zn    5.300000       18.13500       5.301000              
 Zn    5.300000       5.300000       18.13500              
 Zn    18.13500       18.13500       18.13500              
 Zn    18.13500       5.300000       5.301000              
 Zn    7.534000       20.36900       20.36800              
 Zn    7.534000       7.534000       7.534000              
 Zn    20.36900       20.36900       7.534000              
 Zn    20.36900       7.534000       20.36800              
 Zn    7.534000       5.300000       20.36800              
 Zn    7.534000       18.13500       7.534000              
 Zn    20.36900       5.300000       7.534000              
 Zn    20.36900       18.13500       20.36800              
 Zn    18.13500       5.300000       20.36800              
 Zn    18.13500       18.13500       7.534000              
 Zn    5.300000       5.300000       7.534000              
 Zn    5.300000       18.13500       20.36800              
 Zn    5.300000       7.534000       20.36800              
 Zn    5.300000       20.36900       7.534000              
 Zn    18.13500       7.534000       7.534000              
 Zn    18.13500       20.36900       20.36800              
 O     6.417000       6.417000       6.417000            
 O     6.417000       19.25200       19.25200            
 O     19.25200       6.417000       19.25200            
 O     19.25200       19.25200       6.417000            
 O     19.25200       6.417000       6.417000            
 O     19.25200       19.25200       19.25200            
 O     6.417000       6.417000       19.25200            
 O     6.417000       19.25200       6.417000            
 O     7.234000       5.601000       3.437000            
 O     7.234000       18.43500       16.27200            
 O     20.06800       5.601000       16.27200            
 O     20.06800       18.43500       3.437000            
 O     20.06800       7.234000       3.437000            
 O     20.06800       20.06800       16.27200            
 O     7.234000       7.234000       16.27200            
 O     7.234000       20.06800       3.437000            
 O     18.43500       20.06800       3.437000            
 O     18.43500       7.234000       16.27200            
 O     5.601000       20.06800       16.27200            
 O     5.601000       7.234000       3.437000            
 O     5.601000       18.43500       3.437000            
 O     5.601000       5.601000       16.27200            
 O     18.43500       18.43500       16.27200            
 O     18.43500       5.601000       3.437000            
 O     7.234000       22.23200       5.601000            
 O     7.234000       9.397000       18.43500            
 O     20.06800       22.23200       18.43500            
 O     20.06800       9.397000       5.601000            
 O     7.234000       20.06800       22.23200            
 O     7.234000       7.234000       9.397000            
 O     20.06800       20.06800       9.397000            
 O     20.06800       7.234000       22.23200            
 O     7.234000       3.437000       20.06800            
 O     7.234000       16.27200       7.234000            
 O     20.06800       3.437000       7.234000            
 O     20.06800       16.27200       20.06800            
 O     3.437000       5.601000       18.43500            
 O     3.437000       18.43500       5.601000            
 O     16.27200       5.601000       5.601000            
 O     16.27200       18.43500       18.43500            
 O     18.43500       5.601000       22.23200            
 O     18.43500       18.43500       9.397000            
 O     5.601000       5.601000       9.397000            
 O     5.601000       18.43500       22.23200            
 O     22.23200       5.601000       7.234000            
 O     22.23200       18.43500       20.06800            
 O     9.397000       5.601000       20.06800            
 O     9.397000       18.43500       7.234000            
 O     3.437000       7.234000       5.601000            
 O     3.437000       20.06800       18.43500            
 O     16.27200       7.234000       18.43500            
 O     16.27200       20.06800       5.601000            
 O     5.601000       3.437000       7.234000            
 O     5.601000       16.27200       20.06800            
 O     18.43500       3.437000       20.06800            
 O     18.43500       16.27200       7.234000            
 O     20.06800       22.23200       7.234000            
 O     20.06800       9.397000       20.06800            
 O     7.234000       22.23200       20.06800            
 O     7.234000       9.397000       7.234000            
 O     3.437000       18.43500       20.06800            
 O     3.437000       5.601000       7.234000            
 O     16.27200       18.43500       7.234000            
 O     16.27200       5.601000       20.06800            
 O     20.06800       3.437000       18.43500            
 O     20.06800       16.27200       5.601000            
 O     7.234000       3.437000       5.601000            
 O     7.234000       16.27200       18.43500            
 O     22.23200       18.43500       5.601000            
 O     22.23200       5.601000       18.43500            
 O     9.397000       18.43500       18.43500            
 O     9.397000       5.601000       5.601000            
 O     22.23200       7.234000       20.06800            
 O     22.23200       20.06800       7.234000            
 O     9.397000       7.234000       7.234000            
 O     9.397000       20.06800       20.06800            
 O     5.601000       22.23200       18.43500            
 O     5.601000       9.397000       5.601000            
 O     18.43500       22.23200       5.601000            
 O     18.43500       9.397000       18.43500            
 O     5.601000       7.234000       22.23200            
 O     5.601000       20.06800       9.397000            
 O     18.43500       7.234000       9.397000            
 O     18.43500       20.06800       22.23200            
 O     20.06800       18.43500       22.23200            
 O     20.06800       5.601000       9.397000            
 O     7.234000       18.43500       9.397000            
 O     7.234000       5.601000       22.23200            
 O     18.43500       3.437000       5.601000            
 O     18.43500       16.27200       18.43500            
 O     5.601000       3.437000       18.43500            
 O     5.601000       16.27200       5.601000            
 O     18.43500       22.23200       20.06800            
 O     18.43500       9.397000       7.234000            
 O     5.601000       22.23200       7.234000            
 O     5.601000       9.397000       20.06800            
 O     3.437000       20.06800       7.234000            
 O     3.437000       7.234000       20.06800            
 O     16.27200       20.06800       20.06800            
 O     16.27200       7.234000       7.234000            
 O     22.23200       20.06800       18.43500            
 O     22.23200       7.234000       5.601000            
 O     9.397000       20.06800       5.601000            
 O     9.397000       7.234000       18.43500            
 H     7.852000       4.982000       1.160000             
 H     7.852000       17.81700       13.99500             
 H     20.68700       4.982000       13.99500             
 H     20.68700       17.81700       1.160000             
 H     20.68700       7.852000       1.160000             
 H     20.68700       20.68700       13.99500             
 H     7.852000       7.852000       13.99500             
 H     7.852000       20.68700       1.160000             
 H     17.81700       20.68700       1.160000             
 H     17.81700       7.852000       13.99500             
 H     4.982000       20.68700       13.99500             
 H     4.982000       7.852000       1.160000             
 H     4.982000       17.81700       1.160000             
 H     4.982000       4.982000       13.99500             
 H     17.81700       17.81700       13.99500             
 H     17.81700       4.982000       1.160000             
 H     7.852000       24.50800       4.982000             
 H     7.852000       11.67400       17.81700             
 H     20.68700       24.50800       17.81700             
 H     20.68700       11.67400       4.982000             
 H     7.852000       20.68700       24.50900             
 H     7.852000       7.852000       11.67400             
 H     20.68700       20.68700       11.67400             
 H     20.68700       7.852000       24.50900             
 H     7.852000       1.161000       20.68700             
 H     7.852000       13.99500       7.852000             
 H     20.68700       1.161000       7.852000             
 H     20.68700       13.99500       20.68700             
 H     1.161000       4.982000       17.81700             
 H     1.161000       17.81700       4.982000             
 H     13.99500       4.982000       4.982000             
 H     13.99500       17.81700       17.81700             
 H     17.81700       4.982000       24.50900             
 H     17.81700       17.81700       11.67400             
 H     4.982000       4.982000       11.67400             
 H     4.982000       17.81700       24.50900             
 H     24.50800       4.982000       7.852000             
 H     24.50800       17.81700       20.68700             
 H     11.67400       4.982000       20.68700             
 H     11.67400       17.81700       7.852000             
 H     1.161000       7.852000       4.982000             
 H     1.161000       20.68700       17.81700             
 H     13.99500       7.852000       17.81700             
 H     13.99500       20.68700       4.982000             
 H     4.982000       1.161000       7.852000             
 H     4.982000       13.99500       20.68700             
 H     17.81700       1.161000       20.68700             
 H     17.81700       13.99500       7.852000             
 H     20.68700       24.50800       7.852000             
 H     20.68700       11.67400       20.68700             
 H     7.852000       24.50800       20.68700             
 H     7.852000       11.67400       7.852000             
 H     1.161000       17.81700       20.68700             
 H     1.161000       4.982000       7.852000             
 H     13.99500       17.81700       7.852000             
 H     13.99500       4.982000       20.68700             
 H     20.68700       1.161000       17.81700             
 H     20.68700       13.99500       4.982000             
 H     7.852000       1.161000       4.982000             
 H     7.852000       13.99500       17.81700             
 H     24.50800       17.81700       4.982000             
 H     24.50800       4.982000       17.81700             
 H     11.67400       17.81700       17.81700             
 H     11.67400       4.982000       4.982000             
 H     24.50800       7.852000       20.68700             
 H     24.50800       20.68700       7.852000             
 H     11.67400       7.852000       7.852000             
 H     11.67400       20.68700       20.68700             
 H     4.982000       24.50800       17.81700             
 H     4.982000       11.67400       4.982000             
 H     17.81700       24.50800       4.982000             
 H     17.81700       11.67400       17.81700             
 H     4.982000       7.852000       24.50900             
 H     4.982000       20.68700       11.67400             
 H     17.81700       7.852000       11.67400             
 H     17.81700       20.68700       24.50900             
 H     20.68700       17.81700       24.50900             
 H     20.68700       4.982000       11.67400             
 H     7.852000       17.81700       11.67400             
 H     7.852000       4.982000       24.50900             
 H     17.81700       1.161000       4.982000             
 H     17.81700       13.99500       17.81700             
 H     4.982000       1.161000       17.81700             
 H     4.982000       13.99500       4.982000             
 H     17.81700       24.50800       20.68700             
 H     17.81700       11.67400       7.852000             
 H     4.982000       24.50800       7.852000             
 H     4.982000       11.67400       20.68700             
 H     1.161000       20.68700       7.852000             
 H     1.161000       7.852000       20.68700             
 H     13.99500       20.68700       20.68700             
 H     13.99500       7.852000       7.852000             
 H     24.50800       20.68700       17.81700             
 H     24.50800       7.852000       4.982000             
 H     11.67400       20.68700       4.982000             
 H     11.67400       7.852000       17.81700             
