240
ROG
O       3.008648    1.061789    1.335033
O       1.061789    4.900510    1.338789
O       5.380625    3.785375    1.385601
O       2.480686    6.685314    0.000000
Be      4.801701    4.364299    0.000000
Si      1.914044    5.151475    0.000000
Si      2.124862    0.748129    0.000000
O       0.827323    1.716425    0.000000
O       3.162820    4.117917    0.000000
Al      3.991060    0.000000    2.290250
Ca      3.242931    3.242931    2.290250
Si      4.014525    7.251956    0.000000
O       5.048083    6.003180    0.000000
O       4.265490    8.104211    1.338789
Al      0.000000    3.991060    2.290250
O       3.785375    5.380625    3.194899
O       1.061789    3.008648    3.245467
O       4.900510    1.061789    3.241711
Be      4.364299    4.801701    4.580500
O       4.117917    3.162820    4.580500
Al      5.174940    9.166000    2.290250
Ca      5.923069    5.923069    2.290250
O       2.480686    6.685314    9.161000
Be      4.801701    4.364299    9.161000
Si      1.914044    5.151475    9.161000
Si      2.124862    0.748129    9.161000
O       0.827323    1.716425    9.161000
O       3.162820    4.117917    9.161000
O       3.008648    1.061789    7.825967
O       1.061789    4.900510    7.822211
O       4.265490    8.104211    7.822211
Si      4.014525    7.251956    9.161000
O       5.048083    6.003180    9.161000
O       5.380625    3.785375    7.775399
Al      3.991060    0.000000    6.870750
Al      0.000000    3.991060    6.870750
Al      5.174940    9.166000    6.870750
Ca      3.242931    3.242931    6.870750
Ca      5.923069    5.923069    6.870750
Al      3.991060   18.332000    2.290250
O       1.061789   15.323352    1.335033
Si      0.748129   16.207138    0.000000
O       1.716425   17.504677    0.000000
Al      0.000000   14.340940    2.290250
Ca      3.242931   15.089069    2.290250
O       5.380625   14.546625    3.194899
O       3.008648   17.270211    3.245467
O       4.900510   17.270211    1.338789
O       1.061789   13.431490    3.241711
O       3.785375   12.951375    1.385601
Be      4.801701   13.967701    4.580500
O       4.117917   15.169180    0.000000
O       3.162820   14.214083    4.580500
Ca      5.923069   12.408931    2.290250
Si      0.748129   16.207138    9.161000
O       1.716425   17.504677    9.161000
O       1.061789   15.323352    7.825967
O       4.117917   15.169180    9.161000
Al      3.991060   18.332000    6.870750
Al      0.000000   14.340940    6.870750
Ca      3.242931   15.089069    6.870750
O      17.270211    3.008648    1.335033
Si     17.583871    2.124862    0.000000
O      16.615575    0.827323    0.000000
Al     14.340940    0.000000    2.290250
Al     18.332000    3.991060    2.290250
Ca     15.089069    3.242931    2.290250
O      12.951375    3.785375    3.194899
O      15.323352    1.061789    3.245467
O      13.431490    1.061789    1.338789
O      17.270211    4.900510    3.241711
O      14.546625    5.380625    1.385601
Be     13.530299    4.364299    4.580500
O      14.214083    3.162820    0.000000
O      15.169180    4.117917    4.580500
Ca     12.408931    5.923069    2.290250
Si     17.583871    2.124862    9.161000
O      16.615575    0.827323    9.161000
O      17.270211    3.008648    7.825967
O      14.214083    3.162820    9.161000
Al     14.340940    0.000000    6.870750
Al     18.332000    3.991060    6.870750
Ca     15.089069    3.242931    6.870750
Si     16.207138   17.583871    0.000000
O      17.504677   16.615575    0.000000
O      15.323352   17.270211    1.335033
O      17.270211   13.431490    1.338789
O      15.851314   11.646686    0.000000
Be     13.530299   13.967701    0.000000
Si     16.417956   13.180525    0.000000
O      15.169180   14.214083    0.000000
Al     14.340940   18.332000    2.290250
Ca     15.089069   15.089069    2.290250
Si     14.317475   11.080044    0.000000
O      13.283917   12.328820    0.000000
O      14.066510   10.227789    1.338789
Al     18.332000   14.340940    2.290250
O      17.270211   15.323352    3.245467
O      13.431490   17.270211    3.241711
O      12.951375   14.546625    1.385601
O      14.546625   12.951375    3.194899
O      14.214083   15.169180    4.580500
Al     13.157060    9.166000    2.290250
Ca     12.408931   12.408931    2.290250
O      15.323352   17.270211    7.825967
Si     16.207138   17.583871    9.161000
O      17.504677   16.615575    9.161000
O      15.851314   11.646686    9.161000
Be     13.530299   13.967701    9.161000
Si     16.417956   13.180525    9.161000
O      15.169180   14.214083    9.161000
O      17.270211   13.431490    7.822211
O      14.066510   10.227789    7.822211
Si     14.317475   11.080044    9.161000
O      13.283917   12.328820    9.161000
O      12.951375   14.546625    7.775399
Al     14.340940   18.332000    6.870750
Al     18.332000   14.340940    6.870750
Al     13.157060    9.166000    6.870750
Ca     15.089069   15.089069    6.870750
Ca     12.408931   12.408931    6.870750
Be     13.967701   13.530299    4.580500
O       6.685314   15.851314    0.000000
Be      4.364299   13.530299    0.000000
Si      5.151475   16.417956    0.000000
Si      7.251956   14.317475    0.000000
O       6.003180   13.283917    0.000000
O       8.104211   14.066510    1.338789
Al      9.166000   13.157060    2.290250
O       6.685314   15.851314    9.161000
Be      4.364299   13.530299    9.161000
Si      5.151475   16.417956    9.161000
O       4.900510   17.270211    7.822211
O       8.104211   14.066510    7.822211
Si      7.251956   14.317475    9.161000
O       6.003180   13.283917    9.161000
O       3.785375   12.951375    7.775399
Al      9.166000   13.157060    6.870750
Ca      5.923069   12.408931    6.870750
O      11.646686    2.480686    0.000000
Be     13.967701    4.801701    0.000000
Si     13.180525    1.914044    0.000000
Si     11.080044    4.014525    0.000000
O      12.328820    5.048083    0.000000
O      10.227789    4.265490    1.338789
Al      9.166000    5.174940    2.290250
O      11.646686    2.480686    9.161000
Be     13.967701    4.801701    9.161000
Si     13.180525    1.914044    9.161000
O      13.431490    1.061789    7.822211
O      10.227789    4.265490    7.822211
Si     11.080044    4.014525    9.161000
O      12.328820    5.048083    9.161000
O      14.546625    5.380625    7.775399
Al      9.166000    5.174940    6.870750
Ca     12.408931    5.923069    6.870750
Si      0.748129    2.124862    4.580500
O       1.716425    0.827323    4.580500
O       1.061789    3.008648    5.915533
O       3.008648   17.270211    5.915533
Si      2.124862   17.583871    4.580500
O       0.827323   16.615575    4.580500
O       2.480686   11.646686    4.580500
Si      1.914044   13.180525    4.580500
O       1.061789   13.431490    5.919289
O       4.265490   10.227789    5.919289
Si      4.014525   11.080044    4.580500
O       5.048083   12.328820    4.580500
O       4.265490   10.227789    3.241711
O       5.380625   14.546625    5.966101
O      15.851314    6.685314    4.580500
Si     16.417956    5.151475    4.580500
Si     16.207138    0.748129    4.580500
O      17.504677    1.716425    4.580500
O      15.323352    1.061789    5.915533
O      17.270211    4.900510    5.919289
O      14.066510    8.104211    5.919289
Si     14.317475    7.251956    4.580500
O      13.283917    6.003180    4.580500
O      14.066510    8.104211    3.241711
O      12.951375    3.785375    5.966101
Si     17.583871   16.207138    4.580500
O      16.615575   17.504677    4.580500
O      17.270211   15.323352    5.915533
O       6.685314    2.480686    4.580500
Si      5.151475    1.914044    4.580500
O       4.900510    1.061789    5.919289
O       8.104211    4.265490    5.919289
Si      7.251956    4.014525    4.580500
O       6.003180    5.048083    4.580500
O       8.104211    4.265490    3.241711
O       3.785375    5.380625    5.966101
O      11.646686   15.851314    4.580500
Si     13.180525   16.417956    4.580500
O      13.431490   17.270211    5.919289
O      10.227789   14.066510    5.919289
Si     11.080044   14.317475    4.580500
O      12.328820   13.283917    4.580500
O      10.227789   14.066510    3.241711
O      14.546625   12.951375    5.966101
O      12.174648   10.227789    5.915533
Si     11.290862    9.914129    4.580500
O       9.993323   10.882425    4.580500
O       8.104211   12.174648    5.915533
Si      8.417871   11.290862    4.580500
O       7.449575    9.993323    4.580500
O      10.227789    6.157352    5.915533
Si      9.914129    7.041138    4.580500
O      10.882425    8.338677    4.580500
O       6.157352    8.104211    3.245467
Si      7.041138    8.417871    4.580500
O       8.338677    7.449575    4.580500
O      12.174648   10.227789    3.245467
O      10.227789    6.157352    3.245467
O       8.104211   12.174648    3.245467
O       6.157352    8.104211    5.915533
O       6.157352   10.227789    7.825967
O      12.174648    8.104211    7.825967
O      10.227789   12.174648    7.825967
O       8.104211    6.157352    7.825967
Si      7.041138    9.914129    0.000000
O       8.338677   10.882425    0.000000
Si      9.914129   11.290862    0.000000
O      10.882425    9.993323    0.000000
Si      8.417871    7.041138    0.000000
O       7.449575    8.338677    0.000000
O      12.174648    8.104211    1.335033
Si     11.290862    8.417871    0.000000
O       9.993323    7.449575    0.000000
O       6.157352   10.227789    1.335033
O       8.104211    6.157352    1.335033
O      10.227789   12.174648    1.335033
Si      7.041138    9.914129    9.161000
O       8.338677   10.882425    9.161000
Si      9.914129   11.290862    9.161000
O      10.882425    9.993323    9.161000
Si      8.417871    7.041138    9.161000
O       7.449575    8.338677    9.161000
Si     11.290862    8.417871    9.161000
O       9.993323    7.449575    9.161000
