         624

Cu           7.44526   7.44526   0.00000
O            8.33274   6.41977  24.90753
C            8.46129   4.68267  23.30844
C            7.79279   5.35117  24.46379
C            9.59430   5.29149  22.73825
H            9.99440   6.15321  23.13809
Cu           5.69869   5.69869   0.00000
Cu          13.14396   7.44526  20.58922
Cu          13.14396   5.69869  18.84265
Cu           7.44526   0.00000  18.84265
Cu           5.69869   0.00000  20.58922
Cu          13.14396   7.44526   5.69869
Cu          13.14396   5.69869   7.44526
Cu           7.44526   0.00000   7.44526
Cu           5.69869   0.00000   5.69869
Cu           7.44526  13.14396  20.58922
Cu           5.69869  13.14396  18.84265
Cu           0.00000   7.44526  18.84265
Cu           0.00000   5.69869  20.58922
Cu           7.44526  13.14396   5.69869
Cu           5.69869  13.14396   7.44526
Cu           0.00000   7.44526   7.44526
Cu           0.00000   5.69869   5.69869
O            6.72418   4.81121  24.90753
O           11.76358   6.41977  21.47670
O           11.76358   4.81121  19.86814
O            8.33274   1.38038  19.86814
O            6.72418   1.38038  21.47670
O            8.33274   6.41977   1.38038
O            6.72418   4.81121   1.38038
O           11.76358   6.41977   4.81121
O           11.76358   4.81121   6.41977
O            8.33274   1.38038   6.41977
O            6.72418   1.38038   4.81121
O            6.41977   8.33274  24.90753
O            4.81121   6.72418  24.90753
O            6.41977  11.76358  21.47670
O            4.81121  11.76358  19.86814
O            1.38038   8.33274  19.86814
O            1.38038   6.72418  21.47670
O            6.41977   8.33274   1.38038
O            4.81121   6.72418   1.38038
O            6.41977  11.76358   4.81121
O            4.81121  11.76358   6.41977
O            1.38038   8.33274   6.41977
O            1.38038   6.72418   4.81121
O           14.52433   6.41977  21.47670
O           11.76358   8.33274  19.56373
O           14.52433   8.33274  19.56373
O           14.52433   4.81121  19.86814
O           11.76358   6.72418  17.95517
O           14.52433   6.72418  17.95517
O            8.33274  24.90753  19.86814
O            6.41977   1.38038  17.95517
O            6.41977  24.90753  17.95517
O            6.72418  24.90753  21.47670
O            4.81121   1.38038  19.56373
O            4.81121  24.90753  19.56373
C           10.16448   4.68267  21.60524
C            8.46129   2.97947  21.60524
C            8.46129   4.68267   2.97947
C           10.16448   4.68267   4.68267
C            8.46129   2.97947   4.68267
C            4.68267   8.46129  23.30844
C            4.68267  10.16448  21.60524
C            2.97947   8.46129  21.60524
C            4.68267   8.46129   2.97947
C            4.68267  10.16448   4.68267
C            2.97947   8.46129   4.68267
C           11.31984   5.35117  20.93674
C            7.79279   1.82412  20.93674
C            7.79279   5.35117   1.82412
C           11.31984   5.35117   5.35117
C            7.79279   1.82412   5.35117
C            5.35117   7.79279  24.46379
C            5.35117  11.31984  20.93674
C            1.82412   7.79279  20.93674
C            5.35117   7.79279   1.82412
C            5.35117  11.31984   5.35117
C            1.82412   7.79279   5.35117
C            9.59430   3.54966  20.99642
C            7.85246   3.54966  22.73825
C            9.59430   5.29149   3.54966
C            9.59430   3.54966   5.29149
C            7.85246   3.54966   3.54966
C            5.29149   9.59430  22.73825
C            3.54966   9.59430  20.99642
C            3.54966   7.85246  22.73825
C            5.29149   9.59430   3.54966
C            3.54966   9.59430   5.29149
C            3.54966   7.85246   3.54966
H            6.99074   3.14955  23.13809
H            9.99440   3.14982  20.13470
H            9.99440   6.15321   3.14982
H            6.99074   3.14955   3.14982
H            9.99440   3.14982   6.15321
H            6.15321   9.99440  23.13809
H            3.14955   6.99074  23.13809
H            3.14982   9.99440  20.13470
H            6.15321   9.99440   3.14982
H            3.14955   6.99074   3.14982
H            3.14982   9.99440   6.15321
O           24.90753   8.33274   6.41977
C           23.30844   8.46129   4.68267
C           24.46379   7.79279   5.35117
C           22.73825   9.59430   5.29149
H           23.13809   9.99440   6.15321
Cu          20.58922  13.14396   7.44526
Cu          18.84265  13.14396   5.69869
Cu          18.84265   7.44526   0.00000
Cu          20.58922   5.69869   0.00000
Cu          20.58922   7.44526  13.14396
Cu          18.84265   5.69869  13.14396
Cu          18.84265   0.00000   7.44526
Cu          20.58922   0.00000   5.69869
Cu           5.69869   7.44526  13.14396
Cu           7.44526   5.69869  13.14396
O           24.90753   6.72418   4.81121
O           21.47670  11.76358   6.41977
O           19.86814  11.76358   4.81121
O           19.86814   8.33274   1.38038
O           21.47670   6.72418   1.38038
O           24.90753   6.41977   8.33274
O           24.90753   4.81121   6.72418
O           21.47670   6.41977  11.76358
O           19.86814   4.81121  11.76358
O           19.86814   1.38038   8.33274
O           21.47670   1.38038   6.72418
O            1.38038   6.41977   8.33274
O            1.38038   4.81121   6.72418
O            4.81121   6.41977  11.76358
O            6.41977   4.81121  11.76358
O            6.41977   1.38038   8.33274
O            4.81121   1.38038   6.72418
O           21.47670  14.52433   6.41977
O           19.56373  11.76358   8.33274
O           19.56373  14.52433   8.33274
O           19.86814  14.52433   4.81121
O           17.95517  11.76358   6.72418
O           17.95517  14.52433   6.72418
O           19.86814   8.33274  24.90753
O           17.95517   6.41977   1.38038
O           17.95517   6.41977  24.90753
O           21.47670   6.72418  24.90753
O           19.56373   4.81121   1.38038
O           19.56373   4.81121  24.90753
C           21.60524  10.16448   4.68267
C           21.60524   8.46129   2.97947
C           23.30844   4.68267   8.46129
C           21.60524   4.68267  10.16448
C           21.60524   2.97947   8.46129
C            2.97947   4.68267   8.46129
C            4.68267   4.68267  10.16448
C            4.68267   2.97947   8.46129
C           20.93674  11.31984   5.35117
C           20.93674   7.79279   1.82412
C           24.46379   5.35117   7.79279
C           20.93674   5.35117  11.31984
C           20.93674   1.82412   7.79279
C            1.82412   5.35117   7.79279
C            5.35117   5.35117  11.31984
C            5.35117   1.82412   7.79279
C           20.99642   9.59430   3.54966
C           22.73825   7.85246   3.54966
C           22.73825   5.29149   9.59430
C           20.99642   3.54966   9.59430
C           22.73825   3.54966   7.85246
C            3.54966   5.29149   9.59430
C            5.29149   3.54966   9.59430
C            3.54966   3.54966   7.85246
H           23.13809   6.99074   3.14955
H           20.13470   9.99440   3.14982
H           23.13809   6.15321   9.99440
H           23.13809   3.14955   6.99074
H           20.13470   3.14982   9.99440
H            3.14982   6.15321   9.99440
H            3.14982   3.14955   6.99074
H            6.15321   3.14982   9.99440
O            6.41977  24.90753   8.33274
C            4.68267  23.30844   8.46129
C            5.35117  24.46379   7.79279
C            5.29149  22.73825   9.59430
H            6.15321  23.13809   9.99440
Cu           7.44526  20.58922  13.14396
Cu           5.69869  18.84265  13.14396
Cu           0.00000  18.84265   7.44526
Cu           0.00000  20.58922   5.69869
Cu          13.14396  20.58922   7.44526
Cu          13.14396  18.84265   5.69869
Cu           7.44526  18.84265   0.00000
Cu           5.69869  20.58922   0.00000
O            4.81121  24.90753   6.72418
O            6.41977  21.47670  11.76358
O            4.81121  19.86814  11.76358
O            1.38038  19.86814   8.33274
O            1.38038  21.47670   6.72418
O            8.33274  24.90753   6.41977
O            6.72418  24.90753   4.81121
O           11.76358  21.47670   6.41977
O           11.76358  19.86814   4.81121
O            8.33274  19.86814   1.38038
O            6.72418  21.47670   1.38038
O            6.41977  21.47670  14.52433
O            8.33274  19.56373  11.76358
O            8.33274  19.56373  14.52433
O            4.81121  19.86814  14.52433
O            6.72418  17.95517  11.76358
O            6.72418  17.95517  14.52433
O           24.90753  19.86814   8.33274
O            1.38038  17.95517   6.41977
O           24.90753  17.95517   6.41977
O           24.90753  21.47670   6.72418
O            1.38038  19.56373   4.81121
O           24.90753  19.56373   4.81121
C            4.68267  21.60524  10.16448
C            2.97947  21.60524   8.46129
C            8.46129  23.30844   4.68267
C           10.16448  21.60524   4.68267
C            8.46129  21.60524   2.97947
C            5.35117  20.93674  11.31984
C            1.82412  20.93674   7.79279
C            7.79279  24.46379   5.35117
C           11.31984  20.93674   5.35117
C            7.79279  20.93674   1.82412
C            3.54966  20.99642   9.59430
C            3.54966  22.73825   7.85246
C            9.59430  22.73825   5.29149
C            9.59430  20.99642   3.54966
C            7.85246  22.73825   3.54966
H            3.14955  23.13809   6.99074
H            3.14982  20.13470   9.99440
H            9.99440  23.13809   6.15321
H            6.99074  23.13809   3.14955
H            9.99440  20.13470   3.14982
Cu          20.58922  13.14396  18.84265
Cu          18.84265  13.14396  20.58922
Cu          18.84265   0.00000  18.84265
Cu          20.58922   0.00000  20.58922
O           24.90753   8.33274  19.86814
O           24.90753   6.72418  21.47670
O           21.47670  11.76358  19.86814
O           19.86814  11.76358  21.47670
O            1.38038   6.41977  17.95517
O            1.38038   4.81121  19.56373
O            4.81121   6.41977  14.52433
O            6.41977   4.81121  14.52433
O           24.90753   6.41977  17.95517
O           24.90753   4.81121  19.56373
O           21.47670   6.41977  14.52433
O           19.86814   4.81121  14.52433
O           19.86814   1.38038  17.95517
O           21.47670   1.38038  19.56373
O            4.81121  14.52433  19.86814
O            6.72418  11.76358  17.95517
O            6.72418  14.52433  17.95517
O            6.41977  14.52433  21.47670
O            8.33274  11.76358  19.56373
O            8.33274  14.52433  19.56373
C           23.30844   8.46129  21.60524
C           21.60524  10.16448  21.60524
C           21.60524   8.46129  23.30844
C            2.97947   4.68267  17.82662
C            4.68267   4.68267  16.12343
C            4.68267   2.97947  17.82662
C           23.30844   4.68267  17.82662
C           21.60524   4.68267  16.12343
C           21.60524   2.97947  17.82662
C           24.46379   7.79279  20.93674
C           20.93674  11.31984  20.93674
C           20.93674   7.79279  24.46379
C            1.82412   5.35117  18.49512
C            5.35117   5.35117  14.96807
C            5.35117   1.82412  18.49512
C           24.46379   5.35117  18.49512
C           20.93674   5.35117  14.96807
C           20.93674   1.82412  18.49512
C           22.73825   9.59430  20.99642
C           20.99642   9.59430  22.73825
C           22.73825   7.85246  22.73825
C            3.54966   5.29149  16.69361
C            5.29149   3.54966  16.69361
C            3.54966   3.54966  18.43545
C           22.73825   5.29149  16.69361
C           20.99642   3.54966  16.69361
C           22.73825   3.54966  18.43545
H           23.13809   9.99440  20.13470
H           23.13809   6.99074  23.13836
H           20.13470   9.99440  23.13809
H            3.14982   6.15321  16.29351
H            3.14982   3.14955  19.29717
H            6.15321   3.14982  16.29351
H           23.13809   6.15321  16.29351
H           23.13809   3.14955  19.29717
H           20.13470   3.14982  16.29351
Cu          18.84265  20.58922  13.14396
Cu          20.58922  18.84265  13.14396
Cu          18.84265  18.84265   0.00000
Cu          20.58922  20.58922   0.00000
O           19.86814  24.90753   8.33274
O           21.47670  24.90753   6.72418
O           19.86814  21.47670  11.76358
O           21.47670  19.86814  11.76358
O           17.95517   1.38038   6.41977
O           19.56373   1.38038   4.81121
O           14.52433   4.81121   6.41977
O           14.52433   6.41977   4.81121
O           17.95517  24.90753   6.41977
O           19.56373  24.90753   4.81121
O           14.52433  21.47670   6.41977
O           14.52433  19.86814   4.81121
O           17.95517  19.86814   1.38038
O           19.56373  21.47670   1.38038
O           17.95517   6.72418  11.76358
O           17.95517   6.72418  14.52433
O           19.56373   8.33274  11.76358
O           19.56373   8.33274  14.52433
C           21.60524  23.30844   8.46129
C           21.60524  21.60524  10.16448
C           23.30844  21.60524   8.46129
C           17.82662   2.97947   4.68267
C           16.12343   4.68267   4.68267
C           17.82662   4.68267   2.97947
C           17.82662  23.30844   4.68267
C           16.12343  21.60524   4.68267
C           17.82662  21.60524   2.97947
C           20.93674  24.46379   7.79279
C           20.93674  20.93674  11.31984
C           24.46379  20.93674   7.79279
C           18.49512   1.82412   5.35117
C           14.96807   5.35117   5.35117
C           18.49512   5.35117   1.82412
C           18.49512  24.46379   5.35117
C           14.96807  20.93674   5.35117
C           18.49512  20.93674   1.82412
C           20.99642  22.73825   9.59430
C           22.73825  20.99642   9.59430
C           22.73825  22.73825   7.85246
C           16.69361   3.54966   5.29149
C           16.69361   5.29149   3.54966
C           18.43545   3.54966   3.54966
C           16.69361  22.73825   5.29149
C           16.69361  20.99642   3.54966
C           18.43545  22.73825   3.54966
H           20.13470  23.13809   9.99440
H           23.13836  23.13809   6.99074
H           23.13809  20.13470   9.99440
H           16.29351   3.14982   6.15321
H           19.29717   3.14982   3.14955
H           16.29351   6.15321   3.14982
H           16.29351  23.13809   6.15321
H           19.29717  23.13809   3.14955
H           16.29351  20.13470   3.14982
Cu           0.00000  18.84265  18.84265
Cu           0.00000  20.58922  20.58922
Cu          13.14396  20.58922  18.84265
Cu          13.14396  18.84265  20.58922
O            1.38038  19.86814  17.95517
O            1.38038  21.47670  19.56373
O           11.76358  21.47670  19.86814
O           11.76358  19.86814  21.47670
O            8.33274  19.86814  24.90753
O            6.72418  21.47670  24.90753
O            8.33274   6.72418  14.52433
O            8.33274   6.72418  11.76358
O            6.72418   8.33274  14.52433
O            6.72418   8.33274  11.76358
C            4.68267  23.30844  17.82662
C            4.68267  21.60524  16.12343
C            2.97947  21.60524  17.82662
C            8.46129  23.30844  21.60524
C           10.16448  21.60524  21.60524
C            8.46129  21.60524  23.30844
C            5.35117  24.46379  18.49512
C            5.35117  20.93674  14.96807
C            1.82412  20.93674  18.49512
C            7.79279  24.46379  20.93674
C           11.31984  20.93674  20.93674
C            7.79279  20.93674  24.46379
C            5.29149  22.73825  16.69361
C            3.54966  20.99642  16.69361
C            3.54966  22.73825  18.43545
C            9.59430  22.73825  20.99642
C            9.59430  20.99642  22.73825
C            7.85246  22.73825  22.73825
H            6.15321  23.13809  16.29351
H            3.14955  23.13809  19.29717
H            3.14982  20.13470  16.29351
H            9.99440  23.13809  20.13470
H            6.99074  23.13809  23.13836
H            9.99440  20.13470  23.13809
O           17.95517   1.38038  19.86814
O           19.56373   1.38038  21.47670
O           14.52433   8.33274   6.72418
O           11.76358   8.33274   6.72418
O           14.52433   6.72418   8.33274
O           11.76358   6.72418   8.33274
C           17.82662   4.68267  23.30844
C           16.12343   4.68267  21.60524
C           17.82662   2.97947  21.60524
C           18.49512   5.35117  24.46379
C           14.96807   5.35117  20.93674
C           18.49512   1.82412  20.93674
C           16.69361   5.29149  22.73825
C           16.69361   3.54966  20.99642
C           18.43545   3.54966  22.73825
H           16.29351   6.15321  23.13809
H           19.29717   3.14955  23.13809
H           16.29351   3.14982  20.13470
C            2.97947  17.82662   4.68267
C            1.82412  18.49512   5.35117
C            3.54966  16.69361   5.29149
H            3.14982  16.29351   6.15321
O            4.81121  14.52433   6.41977
O            6.41977  14.52433   4.81121
O            6.41977  17.95517   1.38038
O            4.81121  19.56373   1.38038
O           19.86814  17.95517   1.38038
O           21.47670  19.56373   1.38038
O            6.72418  14.52433   8.33274
O            6.72418  11.76358   8.33274
O            8.33274  14.52433   6.72418
O            8.33274  11.76358   6.72418
O            6.41977  17.95517  24.90753
O            4.81121  19.56373  24.90753
C            4.68267  16.12343   4.68267
C            4.68267  17.82662   2.97947
C           23.30844  17.82662   4.68267
C           21.60524  16.12343   4.68267
C           21.60524  17.82662   2.97947
C            5.35117  14.96807   5.35117
C            5.35117  18.49512   1.82412
C           24.46379  18.49512   5.35117
C           20.93674  14.96807   5.35117
C           20.93674  18.49512   1.82412
C            5.29149  16.69361   3.54966
C            3.54966  18.43545   3.54966
C           22.73825  16.69361   5.29149
C           20.99642  16.69361   3.54966
C           22.73825  18.43545   3.54966
H            3.14982  19.29717   3.14955
H            6.15321  16.29351   3.14982
H           23.13809  16.29351   6.15321
H           23.13809  19.29717   3.14955
H           20.13470  16.29351   3.14982
O            1.38038  17.95517  19.86814
O            1.38038  19.56373  21.47670
O           11.76358  17.95517   6.72418
O           14.52433  17.95517   6.72418
O           11.76358  19.56373   8.33274
O           14.52433  19.56373   8.33274
C            4.68267  17.82662  23.30844
C            4.68267  16.12343  21.60524
C            2.97947  17.82662  21.60524
C            5.35117  18.49512  24.46379
C            5.35117  14.96807  20.93674
C            1.82412  18.49512  20.93674
C            5.29149  16.69361  22.73825
C            3.54966  16.69361  20.99642
C            3.54966  18.43545  22.73825
H            6.15321  16.29351  23.13809
H            3.14955  19.29717  23.13809
H            3.14982  16.29351  20.13470
O           17.95517  19.86814  24.90753
C           17.82662  21.60524  23.30844
C           18.49512  20.93674  24.46379
C           16.69361  20.99642  22.73825
H           16.29351  20.13470  23.13809
O           19.56373  21.47670  24.90753
O           14.52433  19.86814  21.47670
O           14.52433  21.47670  19.86814
O           17.95517  24.90753  19.86814
O           19.56373  24.90753  21.47670
O           19.86814  17.95517  24.90753
O           21.47670  19.56373  24.90753
O           19.86814  14.52433  21.47670
O           21.47670  14.52433  19.86814
O           24.90753  17.95517  19.86814
O           24.90753  19.56373  21.47670
O           14.52433  17.95517  19.56373
O           11.76358  17.95517  19.56373
O           14.52433  19.56373  17.95517
O           11.76358  19.56373  17.95517
O           19.86814  24.90753  17.95517
O           21.47670  24.90753  19.56373
C           16.12343  21.60524  21.60524
C           17.82662  23.30844  21.60524
C           21.60524  17.82662  23.30844
C           21.60524  16.12343  21.60524
C           23.30844  17.82662  21.60524
C           14.96807  20.93674  20.93674
C           18.49512  24.46379  20.93674
C           20.93674  18.49512  24.46379
C           20.93674  14.96807  20.93674
C           24.46379  18.49512  20.93674
C           16.69361  22.73825  20.99642
C           18.43545  22.73825  22.73825
C           20.99642  16.69361  22.73825
C           22.73825  16.69361  20.99642
C           22.73825  18.43545  22.73825
H           19.29717  23.13836  23.13809
H           16.29351  23.13809  20.13470
H           20.13470  16.29351  23.13809
H           23.13836  19.29717  23.13809
H           23.13809  16.29351  20.13470
O           24.90753  19.86814  17.95517
O           24.90753  21.47670  19.56373
O           21.47670  19.86814  14.52433
O           19.86814  21.47670  14.52433
O           19.56373  14.52433  17.95517
O           19.56373  11.76358  17.95517
O           17.95517  14.52433  19.56373
O           17.95517  11.76358  19.56373
C           23.30844  21.60524  17.82662
C           21.60524  21.60524  16.12343
C           21.60524  23.30844  17.82662
C           24.46379  20.93674  18.49512
C           20.93674  20.93674  14.96807
C           20.93674  24.46379  18.49512
C           22.73825  20.99642  16.69361
C           20.99642  22.73825  16.69361
C           22.73825  22.73825  18.43545
H           23.13809  20.13470  16.29351
H           23.13809  23.13836  19.29717
H           20.13470  23.13809  16.29351
O           17.95517  19.56373  14.52433
O           17.95517  19.56373  11.76358
O           19.56373  17.95517  14.52433
O           19.56373  17.95517  11.76358
C            8.46129  17.82662  10.16448
C            7.79279  18.49512  11.31984
C            9.59430  18.43545   9.59430
H            9.99440  19.29717   9.99414
C           10.16448  17.82662   8.46129
C            8.46129  16.12343   8.46129
C            8.46129  17.82662  16.12343
C           10.16448  17.82662  17.82662
C            8.46129  16.12343  17.82662
C           11.31984  18.49512   7.79279
C            7.79279  14.96807   7.79279
C            7.79279  18.49512  14.96807
C           11.31984  18.49512  18.49512
C            7.79279  14.96807  18.49512
C            9.59430  16.69361   7.85246
C            7.85246  16.69361   9.59430
C            9.59430  18.43545  16.69361
C            9.59430  16.69361  18.43545
C            7.85246  16.69361  16.69361
H            6.99074  16.29351   9.99414
H            9.99440  16.29377   6.99074
H            9.99440  19.29717  16.29377
H            6.99074  16.29351  16.29377
H            9.99440  16.29377  19.29717
C            8.46129  10.16448  17.82662
C           10.16448   8.46129  17.82662
C            8.46129   8.46129  16.12343
C            7.79279  11.31984  18.49512
C           11.31984   7.79279  18.49512
C            7.79279   7.79279  14.96807
C            9.59430   9.59430  18.43545
C            9.59430   7.85246  16.69361
C            7.85246   9.59430  16.69361
H            9.99440   9.99414  19.29717
H            6.99074   9.99414  16.29351
H            9.99440   6.99074  16.29377
C           17.82662  16.12343  17.82662
C           16.12343  17.82662  17.82662
C           17.82662  17.82662  16.12343
C           17.82662  10.16448  17.82662
C           16.12343   8.46129  17.82662
C           17.82662   8.46129  16.12343
C           18.49512  14.96807  18.49512
C           14.96807  18.49512  18.49512
C           18.49512  18.49512  14.96807
C           18.49512  11.31984  18.49512
C           14.96807   7.79279  18.49512
C           18.49512   7.79279  14.96807
C           16.69361  16.69361  18.43545
C           16.69361  18.43545  16.69361
C           18.43545  16.69361  16.69361
C           16.69361   9.59430  18.43545
C           16.69361   7.85246  16.69361
C           18.43545   9.59430  16.69361
H           16.29351  16.29377  19.29717
H           19.29717  16.29377  16.29351
H           16.29351  19.29717  16.29377
H           16.29351   9.99414  19.29717
H           19.29717   9.99414  16.29351
H           16.29351   6.99074  16.29377
C            8.46129  10.16448   8.46129
C           10.16448   8.46129   8.46129
C            8.46129   8.46129  10.16448
C            7.79279  11.31984   7.79279
C           11.31984   7.79279   7.79279
C            7.79279   7.79279  11.31984
C            9.59430   9.59430   7.85246
C            9.59430   7.85246   9.59430
C            7.85246   9.59430   9.59430
H            9.99440   9.99414   6.99074
H            6.99074   9.99414   9.99440
H            9.99440   6.99074   9.99414
C           17.82662  17.82662  10.16448
C           16.12343  17.82662   8.46129
C           17.82662  16.12343   8.46129
C           18.49512  18.49512  11.31984
C           14.96807  18.49512   7.79279
C           18.49512  14.96807   7.79279
C           16.69361  18.43545   9.59430
C           16.69361  16.69361   7.85246
C           18.43545  16.69361   9.59430
H           16.29351  19.29717   9.99414
H           19.29717  16.29351   9.99414
H           16.29351  16.29377   6.99074
C           17.82662   8.46129  10.16448
C           18.49512   7.79279  11.31984
C           16.69361   7.85246   9.59430
H           16.29351   6.99074   9.99414
C           16.12343   8.46129   8.46129
C           17.82662  10.16448   8.46129
C           14.96807   7.79279   7.79279
C           18.49512  11.31984   7.79279
C           16.69361   9.59430   7.85246
C           18.43545   9.59430   9.59430
H           19.29717   9.99440   9.99414
H           16.29351   9.99414   6.99074
